
**** 06/24/18 05:49:32 ********* PSpice 9.2 (Mar 2000) ******** ID# 0 ********

 ** Profile: "SCHEMATIC1-sm"  [ E:\AZ\Gm-c\1\gmc-SCHEMATIC1-sm.sim ] 


 ****     CIRCUIT DESCRIPTION


******************************************************************************




** Creating circuit file "gmc-SCHEMATIC1-sm.sim.cir" 
** WARNING: THIS AUTOMATICALLY GENERATED FILE MAY BE OVERWRITTEN BY SUBSEQUENT SIMULATIONS

*Libraries: 
* Local Libraries :
* From [PSPICE NETLIST] section of C:\Program Files\Orcad\PSpice\PSpice.ini file:
.lib "nom.lib" 

*Analysis directives: 
.AC DEC 100 1 3000K
.PROBE V(*) I(*) W(*) D(*) NOISE(*) 
.INC ".\gmc-SCHEMATIC1.net" 



**** INCLUDING gmc-SCHEMATIC1.net ****
* source GMC
X_M13         N05735 N05735 N05995 BSS119/SIE
I_I1         N05885 0 DC 500mAdc  
X_M32         IO2 0 N19632 BSS110/SIE
X_M54         IO5 N20242 N20288 BSS119/SIE
X_M41         N19897 IO5 N19955 BSS110/SIE
X_M23         N18493 N18493 N18539 BSS119/SIE
X_M61         N20626 0 N20684 BSS110/SIE
X_M14         IO1 N05735 N05995 BSS119/SIE
V_V3         N19620 0 6Vdc
I_I4         N19955 0 DC 500mAdc  
X_M21         N18493 IO1 N18551 BSS110/SIE
I_I6         N20684 0 DC 500mAdc  
X_M34         IO2 N19574 N19620 BSS119/SIE
C_C1         0 IO2  2.4u  
X_M53         N20242 N20242 N20288 BSS119/SIE
C_C2         0 IO4  2.34u  
X_M42         IO4 IO2 N19955 BSS110/SIE
X_M62         IO5 IO5 N20684 BSS110/SIE
I_I2         N18551 0 DC 500mAdc  
V_V7         IO1 0 DC 0Vdc AC 1Vac 
X_M51         N20242 0 N20300 BSS110/SIE
V_V4         N19943 0 6Vdc
X_M11         N05735 IO2 N05885 BSS110/SIE
V_V6         N20672 0 6Vdc
X_M33         N19574 N19574 N19620 BSS119/SIE
X_M22         IO2 IO2 N18551 BSS110/SIE
X_M44         IO4 N19897 N19943 BSS119/SIE
V_V1         N05995 0 6Vdc
X_M12         IO1 IO1 N05885 BSS110/SIE
X_M64         IO5 N20626 N20672 BSS119/SIE
I_I5         N20300 0 DC 500mAdc  
V_V2         N18539 0 6Vdc
X_M31         N19574 IO4 N19632 BSS110/SIE
X_M24         IO2 N18493 N18539 BSS119/SIE
X_M52         IO5 IO4 N20300 BSS110/SIE
X_M43         N19897 N19897 N19943 BSS119/SIE
I_I3         N19632 0 DC 500mAdc  
X_M63         N20626 N20626 N20672 BSS119/SIE
V_V5         N20288 0 6Vdc

**** RESUMING gmc-SCHEMATIC1-sm.sim.cir ****
.END

**** 06/24/18 05:49:32 ********* PSpice 9.2 (Mar 2000) ******** ID# 0 ********

 ** Profile: "SCHEMATIC1-sm"  [ E:\AZ\Gm-c\1\gmc-SCHEMATIC1-sm.sim ] 


 ****     Diode MODEL PARAMETERS


******************************************************************************




               X_M13.DREV      X_M13.DCGD      X_M32.DREV      X_M32.DCGD      
          IS  300.000000E-12   10.000000E-15  300.000000E-12   10.000000E-15 
          BV  100                              50                            
          RS     .02                             .02                         
          TT   30.000000E-09                   60.000000E-09                 
         CJO   25.000000E-12   22.400000E-12   35.000000E-12  183.000000E-12 
          VJ                    1.082                           1.097        
           M                     .688                            .439        


               X_M54.DREV      X_M54.DCGD      X_M41.DREV      X_M41.DCGD      
          IS  300.000000E-12   10.000000E-15  300.000000E-12   10.000000E-15 
          BV  100                              50                            
          RS     .02                             .02                         
          TT   30.000000E-09                   60.000000E-09                 
         CJO   25.000000E-12   22.400000E-12   35.000000E-12  183.000000E-12 
          VJ                    1.082                           1.097        
           M                     .688                            .439        


               X_M23.DREV      X_M23.DCGD      X_M61.DREV      X_M61.DCGD      
          IS  300.000000E-12   10.000000E-15  300.000000E-12   10.000000E-15 
          BV  100                              50                            
          RS     .02                             .02                         
          TT   30.000000E-09                   60.000000E-09                 
         CJO   25.000000E-12   22.400000E-12   35.000000E-12  183.000000E-12 
          VJ                    1.082                           1.097        
           M                     .688                            .439        


               X_M14.DREV      X_M14.DCGD      X_M21.DREV      X_M21.DCGD      
          IS  300.000000E-12   10.000000E-15  300.000000E-12   10.000000E-15 
          BV  100                              50                            
          RS     .02                             .02                         
          TT   30.000000E-09                   60.000000E-09                 
         CJO   25.000000E-12   22.400000E-12   35.000000E-12  183.000000E-12 
          VJ                    1.082                           1.097        
           M                     .688                            .439        


               X_M34.DREV      X_M34.DCGD      X_M53.DREV      X_M53.DCGD      
          IS  300.000000E-12   10.000000E-15  300.000000E-12   10.000000E-15 
          BV  100                             100                            
          RS     .02                             .02                         
          TT   30.000000E-09                   30.000000E-09                 
         CJO   25.000000E-12   22.400000E-12   25.000000E-12   22.400000E-12 
          VJ                    1.082                           1.082        
           M                     .688                            .688        


               X_M42.DREV      X_M42.DCGD      X_M62.DREV      X_M62.DCGD      
          IS  300.000000E-12   10.000000E-15  300.000000E-12   10.000000E-15 
          BV   50                              50                            
          RS     .02                             .02                         
          TT   60.000000E-09                   60.000000E-09                 
         CJO   35.000000E-12  183.000000E-12   35.000000E-12  183.000000E-12 
          VJ                    1.097                           1.097        
           M                     .439                            .439        


               X_M51.DREV      X_M51.DCGD      X_M11.DREV      X_M11.DCGD      
          IS  300.000000E-12   10.000000E-15  300.000000E-12   10.000000E-15 
          BV   50                              50                            
          RS     .02                             .02                         
          TT   60.000000E-09                   60.000000E-09                 
         CJO   35.000000E-12  183.000000E-12   35.000000E-12  183.000000E-12 
          VJ                    1.097                           1.097        
           M                     .439                            .439        


               X_M33.DREV      X_M33.DCGD      X_M22.DREV      X_M22.DCGD      
          IS  300.000000E-12   10.000000E-15  300.000000E-12   10.000000E-15 
          BV  100                              50                            
          RS     .02                             .02                         
          TT   30.000000E-09                   60.000000E-09                 
         CJO   25.000000E-12   22.400000E-12   35.000000E-12  183.000000E-12 
          VJ                    1.082                           1.097        
           M                     .688                            .439        


               X_M44.DREV      X_M44.DCGD      X_M12.DREV      X_M12.DCGD      
          IS  300.000000E-12   10.000000E-15  300.000000E-12   10.000000E-15 
          BV  100                              50                            
          RS     .02                             .02                         
          TT   30.000000E-09                   60.000000E-09                 
         CJO   25.000000E-12   22.400000E-12   35.000000E-12  183.000000E-12 
          VJ                    1.082                           1.097        
           M                     .688                            .439        


               X_M64.DREV      X_M64.DCGD      X_M31.DREV      X_M31.DCGD      
          IS  300.000000E-12   10.000000E-15  300.000000E-12   10.000000E-15 
          BV  100                              50                            
          RS     .02                             .02                         
          TT   30.000000E-09                   60.000000E-09                 
         CJO   25.000000E-12   22.400000E-12   35.000000E-12  183.000000E-12 
          VJ                    1.082                           1.097        
           M                     .688                            .439        


               X_M24.DREV      X_M24.DCGD      X_M52.DREV      X_M52.DCGD      
          IS  300.000000E-12   10.000000E-15  300.000000E-12   10.000000E-15 
          BV  100                              50                            
          RS     .02                             .02                         
          TT   30.000000E-09                   60.000000E-09                 
         CJO   25.000000E-12   22.400000E-12   35.000000E-12  183.000000E-12 
          VJ                    1.082                           1.097        
           M                     .688                            .439        


               X_M43.DREV      X_M43.DCGD      X_M63.DREV      X_M63.DCGD      
          IS  300.000000E-12   10.000000E-15  300.000000E-12   10.000000E-15 
          BV  100                             100                            
          RS     .02                             .02                         
          TT   30.000000E-09                   30.000000E-09                 
         CJO   25.000000E-12   22.400000E-12   25.000000E-12   22.400000E-12 
          VJ                    1.082                           1.082        
           M                     .688                            .688        


**** 06/24/18 05:49:32 ********* PSpice 9.2 (Mar 2000) ******** ID# 0 ********

 ** Profile: "SCHEMATIC1-sm"  [ E:\AZ\Gm-c\1\gmc-SCHEMATIC1-sm.sim ] 


 ****     MOSFET MODEL PARAMETERS


******************************************************************************




               X_M13.MBUZ      X_M13.MSW       X_M13.MVRD      X_M32.MBUZ      
               NMOS            NMOS            NMOS            PMOS            
       LEVEL    1               1               1               1            
           L  100.000000E-06  100.000000E-06  100.000000E-06  100.000000E-06 
           W  100.000000E-06  100.000000E-06  100.000000E-06  100.000000E-06 
         VTO    1.999           1.000000E-03   -4.859          -1.462        
          KP     .134            .5              .073            .04         
       GAMMA    0               0               0               0            
         PHI     .6              .6              .6              .6          
      LAMBDA    0               0               0               0            
          IS   10.000000E-15   10.000000E-15   10.000000E-15   10.000000E-15 
          JS    0               0               0               0            
          PB     .8              .8              .8              .8          
        PBSW     .8              .8              .8              .8          
          CJ    0               0               0               0            
        CJSW    0               0               0               0            
        CGSO    0               0               0               0            
        CGDO    0               0               0               0            
        CGBO    0               0               0               0            
         TOX    0               0               0               0            
          XJ    0               0               0               0            
       UCRIT   10.000000E+03   10.000000E+03   10.000000E+03   10.000000E+03 
      DIOMOD    1               1               1               1            
         VFB    0               0               0               0            
        LETA    0               0               0               0            
        WETA    0               0               0               0            
          U0    0               0               0               0            
        TEMP    0               0               0               0            
         VDD    0               0               0               0            
       XPART    0               0               0               0            


               X_M32.MSW       X_M54.MBUZ      X_M54.MSW       X_M54.MVRD      
               PMOS            NMOS            NMOS            NMOS            
       LEVEL    1               1               1               1            
           L  100.000000E-06  100.000000E-06  100.000000E-06  100.000000E-06 
           W  100.000000E-06  100.000000E-06  100.000000E-06  100.000000E-06 
         VTO   -1.000000E-03    1.999           1.000000E-03   -4.859        
          KP    5                .134            .5              .073        
       GAMMA    0               0               0               0            
         PHI     .6              .6              .6              .6          
      LAMBDA    0               0               0               0            
          IS   10.000000E-15   10.000000E-15   10.000000E-15   10.000000E-15 
          JS    0               0               0               0            
          PB     .8              .8              .8              .8          
        PBSW     .8              .8              .8              .8          
          CJ    0               0               0               0            
        CJSW    0               0               0               0            
        CGSO    0               0               0               0            
        CGDO    0               0               0               0            
        CGBO    0               0               0               0            
         TOX    0               0               0               0            
          XJ    0               0               0               0            
       UCRIT   10.000000E+03   10.000000E+03   10.000000E+03   10.000000E+03 
      DIOMOD    1               1               1               1            
         VFB    0               0               0               0            
        LETA    0               0               0               0            
        WETA    0               0               0               0            
          U0    0               0               0               0            
        TEMP    0               0               0               0            
         VDD    0               0               0               0            
       XPART    0               0               0               0            


               X_M41.MBUZ      X_M41.MSW       X_M23.MBUZ      X_M23.MSW       
               PMOS            PMOS            NMOS            NMOS            
       LEVEL    1               1               1               1            
           L  100.000000E-06  100.000000E-06  100.000000E-06  100.000000E-06 
           W  100.000000E-06  100.000000E-06  100.000000E-06  100.000000E-06 
         VTO   -1.462          -1.000000E-03    1.999           1.000000E-03 
          KP     .04            5                .134            .5          
       GAMMA    0               0               0               0            
         PHI     .6              .6              .6              .6          
      LAMBDA    0               0               0               0            
          IS   10.000000E-15   10.000000E-15   10.000000E-15   10.000000E-15 
          JS    0               0               0               0            
          PB     .8              .8              .8              .8          
        PBSW     .8              .8              .8              .8          
          CJ    0               0               0               0            
        CJSW    0               0               0               0            
        CGSO    0               0               0               0            
        CGDO    0               0               0               0            
        CGBO    0               0               0               0            
         TOX    0               0               0               0            
          XJ    0               0               0               0            
       UCRIT   10.000000E+03   10.000000E+03   10.000000E+03   10.000000E+03 
      DIOMOD    1               1               1               1            
         VFB    0               0               0               0            
        LETA    0               0               0               0            
        WETA    0               0               0               0            
          U0    0               0               0               0            
        TEMP    0               0               0               0            
         VDD    0               0               0               0            
       XPART    0               0               0               0            


               X_M23.MVRD      X_M61.MBUZ      X_M61.MSW       X_M14.MBUZ      
               NMOS            PMOS            PMOS            NMOS            
       LEVEL    1               1               1               1            
           L  100.000000E-06  100.000000E-06  100.000000E-06  100.000000E-06 
           W  100.000000E-06  100.000000E-06  100.000000E-06  100.000000E-06 
         VTO   -4.859          -1.462          -1.000000E-03    1.999        
          KP     .073            .04            5                .134        
       GAMMA    0               0               0               0            
         PHI     .6              .6              .6              .6          
      LAMBDA    0               0               0               0            
          IS   10.000000E-15   10.000000E-15   10.000000E-15   10.000000E-15 
          JS    0               0               0               0            
          PB     .8              .8              .8              .8          
        PBSW     .8              .8              .8              .8          
          CJ    0               0               0               0            
        CJSW    0               0               0               0            
        CGSO    0               0               0               0            
        CGDO    0               0               0               0            
        CGBO    0               0               0               0            
         TOX    0               0               0               0            
          XJ    0               0               0               0            
       UCRIT   10.000000E+03   10.000000E+03   10.000000E+03   10.000000E+03 
      DIOMOD    1               1               1               1            
         VFB    0               0               0               0            
        LETA    0               0               0               0            
        WETA    0               0               0               0            
          U0    0               0               0               0            
        TEMP    0               0               0               0            
         VDD    0               0               0               0            
       XPART    0               0               0               0            


               X_M14.MSW       X_M14.MVRD      X_M21.MBUZ      X_M21.MSW       
               NMOS            NMOS            PMOS            PMOS            
       LEVEL    1               1               1               1            
           L  100.000000E-06  100.000000E-06  100.000000E-06  100.000000E-06 
           W  100.000000E-06  100.000000E-06  100.000000E-06  100.000000E-06 
         VTO    1.000000E-03   -4.859          -1.462          -1.000000E-03 
          KP     .5              .073            .04            5            
       GAMMA    0               0               0               0            
         PHI     .6              .6              .6              .6          
      LAMBDA    0               0               0               0            
          IS   10.000000E-15   10.000000E-15   10.000000E-15   10.000000E-15 
          JS    0               0               0               0            
          PB     .8              .8              .8              .8          
        PBSW     .8              .8              .8              .8          
          CJ    0               0               0               0            
        CJSW    0               0               0               0            
        CGSO    0               0               0               0            
        CGDO    0               0               0               0            
        CGBO    0               0               0               0            
         TOX    0               0               0               0            
          XJ    0               0               0               0            
       UCRIT   10.000000E+03   10.000000E+03   10.000000E+03   10.000000E+03 
      DIOMOD    1               1               1               1            
         VFB    0               0               0               0            
        LETA    0               0               0               0            
        WETA    0               0               0               0            
          U0    0               0               0               0            
        TEMP    0               0               0               0            
         VDD    0               0               0               0            
       XPART    0               0               0               0            


               X_M34.MBUZ      X_M34.MSW       X_M34.MVRD      X_M53.MBUZ      
               NMOS            NMOS            NMOS            NMOS            
       LEVEL    1               1               1               1            
           L  100.000000E-06  100.000000E-06  100.000000E-06  100.000000E-06 
           W  100.000000E-06  100.000000E-06  100.000000E-06  100.000000E-06 
         VTO    1.999           1.000000E-03   -4.859           1.999        
          KP     .134            .5              .073            .134        
       GAMMA    0               0               0               0            
         PHI     .6              .6              .6              .6          
      LAMBDA    0               0               0               0            
          IS   10.000000E-15   10.000000E-15   10.000000E-15   10.000000E-15 
          JS    0               0               0               0            
          PB     .8              .8              .8              .8          
        PBSW     .8              .8              .8              .8          
          CJ    0               0               0               0            
        CJSW    0               0               0               0            
        CGSO    0               0               0               0            
        CGDO    0               0               0               0            
        CGBO    0               0               0               0            
         TOX    0               0               0               0            
          XJ    0               0               0               0            
       UCRIT   10.000000E+03   10.000000E+03   10.000000E+03   10.000000E+03 
      DIOMOD    1               1               1               1            
         VFB    0               0               0               0            
        LETA    0               0               0               0            
        WETA    0               0               0               0            
          U0    0               0               0               0            
        TEMP    0               0               0               0            
         VDD    0               0               0               0            
       XPART    0               0               0               0            


               X_M53.MSW       X_M53.MVRD      X_M42.MBUZ      X_M42.MSW       
               NMOS            NMOS            PMOS            PMOS            
       LEVEL    1               1               1               1            
           L  100.000000E-06  100.000000E-06  100.000000E-06  100.000000E-06 
           W  100.000000E-06  100.000000E-06  100.000000E-06  100.000000E-06 
         VTO    1.000000E-03   -4.859          -1.462          -1.000000E-03 
          KP     .5              .073            .04            5            
       GAMMA    0               0               0               0            
         PHI     .6              .6              .6              .6          
      LAMBDA    0               0               0               0            
          IS   10.000000E-15   10.000000E-15   10.000000E-15   10.000000E-15 
          JS    0               0               0               0            
          PB     .8              .8              .8              .8          
        PBSW     .8              .8              .8              .8          
          CJ    0               0               0               0            
        CJSW    0               0               0               0            
        CGSO    0               0               0               0            
        CGDO    0               0               0               0            
        CGBO    0               0               0               0            
         TOX    0               0               0               0            
          XJ    0               0               0               0            
       UCRIT   10.000000E+03   10.000000E+03   10.000000E+03   10.000000E+03 
      DIOMOD    1               1               1               1            
         VFB    0               0               0               0            
        LETA    0               0               0               0            
        WETA    0               0               0               0            
          U0    0               0               0               0            
        TEMP    0               0               0               0            
         VDD    0               0               0               0            
       XPART    0               0               0               0            


               X_M62.MBUZ      X_M62.MSW       X_M51.MBUZ      X_M51.MSW       
               PMOS            PMOS            PMOS            PMOS            
       LEVEL    1               1               1               1            
           L  100.000000E-06  100.000000E-06  100.000000E-06  100.000000E-06 
           W  100.000000E-06  100.000000E-06  100.000000E-06  100.000000E-06 
         VTO   -1.462          -1.000000E-03   -1.462          -1.000000E-03 
          KP     .04            5                .04            5            
       GAMMA    0               0               0               0            
         PHI     .6              .6              .6              .6          
      LAMBDA    0               0               0               0            
          IS   10.000000E-15   10.000000E-15   10.000000E-15   10.000000E-15 
          JS    0               0               0               0            
          PB     .8              .8              .8              .8          
        PBSW     .8              .8              .8              .8          
          CJ    0               0               0               0            
        CJSW    0               0               0               0            
        CGSO    0               0               0               0            
        CGDO    0               0               0               0            
        CGBO    0               0               0               0            
         TOX    0               0               0               0            
          XJ    0               0               0               0            
       UCRIT   10.000000E+03   10.000000E+03   10.000000E+03   10.000000E+03 
      DIOMOD    1               1               1               1            
         VFB    0               0               0               0            
        LETA    0               0               0               0            
        WETA    0               0               0               0            
          U0    0               0               0               0            
        TEMP    0               0               0               0            
         VDD    0               0               0               0            
       XPART    0               0               0               0            


               X_M11.MBUZ      X_M11.MSW       X_M33.MBUZ      X_M33.MSW       
               PMOS            PMOS            NMOS            NMOS            
       LEVEL    1               1               1               1            
           L  100.000000E-06  100.000000E-06  100.000000E-06  100.000000E-06 
           W  100.000000E-06  100.000000E-06  100.000000E-06  100.000000E-06 
         VTO   -1.462          -1.000000E-03    1.999           1.000000E-03 
          KP     .04            5                .134            .5          
       GAMMA    0               0               0               0            
         PHI     .6              .6              .6              .6          
      LAMBDA    0               0               0               0            
          IS   10.000000E-15   10.000000E-15   10.000000E-15   10.000000E-15 
          JS    0               0               0               0            
          PB     .8              .8              .8              .8          
        PBSW     .8              .8              .8              .8          
          CJ    0               0               0               0            
        CJSW    0               0               0               0            
        CGSO    0               0               0               0            
        CGDO    0               0               0               0            
        CGBO    0               0               0               0            
         TOX    0               0               0               0            
          XJ    0               0               0               0            
       UCRIT   10.000000E+03   10.000000E+03   10.000000E+03   10.000000E+03 
      DIOMOD    1               1               1               1            
         VFB    0               0               0               0            
        LETA    0               0               0               0            
        WETA    0               0               0               0            
          U0    0               0               0               0            
        TEMP    0               0               0               0            
         VDD    0               0               0               0            
       XPART    0               0               0               0            


               X_M33.MVRD      X_M22.MBUZ      X_M22.MSW       X_M44.MBUZ      
               NMOS            PMOS            PMOS            NMOS            
       LEVEL    1               1               1               1            
           L  100.000000E-06  100.000000E-06  100.000000E-06  100.000000E-06 
           W  100.000000E-06  100.000000E-06  100.000000E-06  100.000000E-06 
         VTO   -4.859          -1.462          -1.000000E-03    1.999        
          KP     .073            .04            5                .134        
       GAMMA    0               0               0               0            
         PHI     .6              .6              .6              .6          
      LAMBDA    0               0               0               0            
          IS   10.000000E-15   10.000000E-15   10.000000E-15   10.000000E-15 
          JS    0               0               0               0            
          PB     .8              .8              .8              .8          
        PBSW     .8              .8              .8              .8          
          CJ    0               0               0               0            
        CJSW    0               0               0               0            
        CGSO    0               0               0               0            
        CGDO    0               0               0               0            
        CGBO    0               0               0               0            
         TOX    0               0               0               0            
          XJ    0               0               0               0            
       UCRIT   10.000000E+03   10.000000E+03   10.000000E+03   10.000000E+03 
      DIOMOD    1               1               1               1            
         VFB    0               0               0               0            
        LETA    0               0               0               0            
        WETA    0               0               0               0            
          U0    0               0               0               0            
        TEMP    0               0               0               0            
         VDD    0               0               0               0            
       XPART    0               0               0               0            


               X_M44.MSW       X_M44.MVRD      X_M12.MBUZ      X_M12.MSW       
               NMOS            NMOS            PMOS            PMOS            
       LEVEL    1               1               1               1            
           L  100.000000E-06  100.000000E-06  100.000000E-06  100.000000E-06 
           W  100.000000E-06  100.000000E-06  100.000000E-06  100.000000E-06 
         VTO    1.000000E-03   -4.859          -1.462          -1.000000E-03 
          KP     .5              .073            .04            5            
       GAMMA    0               0               0               0            
         PHI     .6              .6              .6              .6          
      LAMBDA    0               0               0               0            
          IS   10.000000E-15   10.000000E-15   10.000000E-15   10.000000E-15 
          JS    0               0               0               0            
          PB     .8              .8              .8              .8          
        PBSW     .8              .8              .8              .8          
          CJ    0               0               0               0            
        CJSW    0               0               0               0            
        CGSO    0               0               0               0            
        CGDO    0               0               0               0            
        CGBO    0               0               0               0            
         TOX    0               0               0               0            
          XJ    0               0               0               0            
       UCRIT   10.000000E+03   10.000000E+03   10.000000E+03   10.000000E+03 
      DIOMOD    1               1               1               1            
         VFB    0               0               0               0            
        LETA    0               0               0               0            
        WETA    0               0               0               0            
          U0    0               0               0               0            
        TEMP    0               0               0               0            
         VDD    0               0               0               0            
       XPART    0               0               0               0            


               X_M64.MBUZ      X_M64.MSW       X_M64.MVRD      X_M31.MBUZ      
               NMOS            NMOS            NMOS            PMOS            
       LEVEL    1               1               1               1            
           L  100.000000E-06  100.000000E-06  100.000000E-06  100.000000E-06 
           W  100.000000E-06  100.000000E-06  100.000000E-06  100.000000E-06 
         VTO    1.999           1.000000E-03   -4.859          -1.462        
          KP     .134            .5              .073            .04         
       GAMMA    0               0               0               0            
         PHI     .6              .6              .6              .6          
      LAMBDA    0               0               0               0            
          IS   10.000000E-15   10.000000E-15   10.000000E-15   10.000000E-15 
          JS    0               0               0               0            
          PB     .8              .8              .8              .8          
        PBSW     .8              .8              .8              .8          
          CJ    0               0               0               0            
        CJSW    0               0               0               0            
        CGSO    0               0               0               0            
        CGDO    0               0               0               0            
        CGBO    0               0               0               0            
         TOX    0               0               0               0            
          XJ    0               0               0               0            
       UCRIT   10.000000E+03   10.000000E+03   10.000000E+03   10.000000E+03 
      DIOMOD    1               1               1               1            
         VFB    0               0               0               0            
        LETA    0               0               0               0            
        WETA    0               0               0               0            
          U0    0               0               0               0            
        TEMP    0               0               0               0            
         VDD    0               0               0               0            
       XPART    0               0               0               0            


               X_M31.MSW       X_M24.MBUZ      X_M24.MSW       X_M24.MVRD      
               PMOS            NMOS            NMOS            NMOS            
       LEVEL    1               1               1               1            
           L  100.000000E-06  100.000000E-06  100.000000E-06  100.000000E-06 
           W  100.000000E-06  100.000000E-06  100.000000E-06  100.000000E-06 
         VTO   -1.000000E-03    1.999           1.000000E-03   -4.859        
          KP    5                .134            .5              .073        
       GAMMA    0               0               0               0            
         PHI     .6              .6              .6              .6          
      LAMBDA    0               0               0               0            
          IS   10.000000E-15   10.000000E-15   10.000000E-15   10.000000E-15 
          JS    0               0               0               0            
          PB     .8              .8              .8              .8          
        PBSW     .8              .8              .8              .8          
          CJ    0               0               0               0            
        CJSW    0               0               0               0            
        CGSO    0               0               0               0            
        CGDO    0               0               0               0            
        CGBO    0               0               0               0            
         TOX    0               0               0               0            
          XJ    0               0               0               0            
       UCRIT   10.000000E+03   10.000000E+03   10.000000E+03   10.000000E+03 
      DIOMOD    1               1               1               1            
         VFB    0               0               0               0            
        LETA    0               0               0               0            
        WETA    0               0               0               0            
          U0    0               0               0               0            
        TEMP    0               0               0               0            
         VDD    0               0               0               0            
       XPART    0               0               0               0            


               X_M52.MBUZ      X_M52.MSW       X_M43.MBUZ      X_M43.MSW       
               PMOS            PMOS            NMOS            NMOS            
       LEVEL    1               1               1               1            
           L  100.000000E-06  100.000000E-06  100.000000E-06  100.000000E-06 
           W  100.000000E-06  100.000000E-06  100.000000E-06  100.000000E-06 
         VTO   -1.462          -1.000000E-03    1.999           1.000000E-03 
          KP     .04            5                .134            .5          
       GAMMA    0               0               0               0            
         PHI     .6              .6              .6              .6          
      LAMBDA    0               0               0               0            
          IS   10.000000E-15   10.000000E-15   10.000000E-15   10.000000E-15 
          JS    0               0               0               0            
          PB     .8              .8              .8              .8          
        PBSW     .8              .8              .8              .8          
          CJ    0               0               0               0            
        CJSW    0               0               0               0            
        CGSO    0               0               0               0            
        CGDO    0               0               0               0            
        CGBO    0               0               0               0            
         TOX    0               0               0               0            
          XJ    0               0               0               0            
       UCRIT   10.000000E+03   10.000000E+03   10.000000E+03   10.000000E+03 
      DIOMOD    1               1               1               1            
         VFB    0               0               0               0            
        LETA    0               0               0               0            
        WETA    0               0               0               0            
          U0    0               0               0               0            
        TEMP    0               0               0               0            
         VDD    0               0               0               0            
       XPART    0               0               0               0            


               X_M43.MVRD      X_M63.MBUZ      X_M63.MSW       X_M63.MVRD      
               NMOS            NMOS            NMOS            NMOS            
       LEVEL    1               1               1               1            
           L  100.000000E-06  100.000000E-06  100.000000E-06  100.000000E-06 
           W  100.000000E-06  100.000000E-06  100.000000E-06  100.000000E-06 
         VTO   -4.859           1.999           1.000000E-03   -4.859        
          KP     .073            .134            .5              .073        
       GAMMA    0               0               0               0            
         PHI     .6              .6              .6              .6          
      LAMBDA    0               0               0               0            
          IS   10.000000E-15   10.000000E-15   10.000000E-15   10.000000E-15 
          JS    0               0               0               0            
          PB     .8              .8              .8              .8          
        PBSW     .8              .8              .8              .8          
          CJ    0               0               0               0            
        CJSW    0               0               0               0            
        CGSO    0               0               0               0            
        CGDO    0               0               0               0            
        CGBO    0               0               0               0            
         TOX    0               0               0               0            
          XJ    0               0               0               0            
       UCRIT   10.000000E+03   10.000000E+03   10.000000E+03   10.000000E+03 
      DIOMOD    1               1               1               1            
         VFB    0               0               0               0            
        LETA    0               0               0               0            
        WETA    0               0               0               0            
          U0    0               0               0               0            
        TEMP    0               0               0               0            
         VDD    0               0               0               0            
       XPART    0               0               0               0            


ERROR -- Convergence problem in bias point calculation


  Last node voltages tried were:

 NODE   VOLTAGE     NODE   VOLTAGE     NODE   VOLTAGE     NODE   VOLTAGE


(  IO1)    0.0000  (  IO2)-940.3E-06  (  IO4)-940.4E-06  (  IO5)-940.3E-06      

(N05735) 48.33E-06 (N05885)-940.4E-06 (N05995) 74.06E-06 (N18493) 48.33E-06     

(N18539) 74.06E-06 (N18551)-940.4E-06 (N19574) 48.33E-06 (N19620) 74.06E-06     

(N19632)-940.4E-06 (N19897) 48.34E-06 (N19943) 74.06E-06 (N19955)-940.4E-06     

(N20242) 48.33E-06 (N20288) 74.06E-06 (N20300)-940.4E-06 (N20626) 48.33E-06     

(N20672) 74.06E-06 (N20684)-940.4E-06 (X_M11.4) 48.33E-06                       

(X_M11.5)-940.3E-06                   (X_M11.8)     .0010                       

(X_M12.4)    0.0000                   (X_M12.5)    0.0000                       

(X_M12.8)-625.9E-06                   (X_M13.5) 48.33E-06                       

(X_M13.8)     .1883                   (X_M14.5) 48.33E-06                       

(X_M14.8) 57.60E-06                   (X_M21.4) 48.33E-06                       

(X_M21.5)    0.0000                   (X_M21.8)     .0010                       

(X_M22.4)-940.3E-06                   (X_M22.5)-940.3E-06                       

(X_M22.8)-940.4E-06                   (X_M23.5) 48.33E-06                       

(X_M23.8)     .1883                   (X_M24.5) 48.33E-06                       

(X_M24.8)-257.0E-06                   (X_M31.4) 48.33E-06                       

(X_M31.5)-940.4E-06                   (X_M31.8)     .0010                       

(X_M32.4)-940.3E-06                   (X_M32.5)    0.0000                       

(X_M32.8)-940.4E-06                   (X_M33.5) 48.33E-06                       

(X_M33.8)     .1883                   (X_M34.5) 48.33E-06                       

(X_M34.8)-257.0E-06                   (X_M41.4) 48.34E-06                       

(X_M41.5)-940.3E-06                   (X_M41.8)     .0010                       

(X_M42.4)-940.4E-06                   (X_M42.5)-940.3E-06                       

(X_M42.8)-940.4E-06                   (X_M43.5) 48.34E-06                       

(X_M43.8)     .1883                   (X_M44.5) 48.34E-06                       

(X_M44.8)-257.0E-06                   (X_M51.4) 48.33E-06                       

(X_M51.5)    0.0000                   (X_M51.8)     .0010                       

(X_M52.4)-940.3E-06                   (X_M52.5)-940.4E-06                       

(X_M52.8)-940.4E-06                   (X_M53.5) 48.33E-06                       

(X_M53.8)     .1883                   (X_M54.5) 48.33E-06                       

(X_M54.8)-257.0E-06                   (X_M61.4) 48.33E-06                       

(X_M61.5)    0.0000                   (X_M61.8)     .0010                       

(X_M62.4)-940.3E-06                   (X_M62.5)-940.3E-06                       

(X_M62.8)-940.4E-06                   (X_M63.5) 48.33E-06                       

(X_M63.8)     .1883                   (X_M64.5) 48.33E-06                       

(X_M64.8)-257.0E-06                   (X_M11.11) 48.33E-06                      

(X_M11.76)-940.3E-06                  (X_M11.86)-940.4E-06                      

(X_M12.11)-4.789E-18                  (X_M12.76)-34.78E-12                      

(X_M12.86)-940.4E-06                  (X_M13.76) 48.33E-06                      

(X_M13.87) 73.02E-06                  (X_M13.95) 48.33E-06                      

(X_M13.97) 74.06E-06                  (X_M13.98) 74.06E-06                      

(X_M13.99) 48.33E-06                  (X_M14.76) 48.33E-06                      

(X_M14.87) 24.69E-06                  (X_M14.95)    0.0000                      

(X_M14.97) 74.06E-06                  (X_M14.98) 74.06E-06                      

(X_M14.99) 2.693E-15                  (X_M21.11) 48.33E-06                      

(X_M21.76)-34.78E-12                  (X_M21.86)-940.4E-06                      

(X_M22.11)-940.3E-06                  (X_M22.76)-940.3E-06                      

(X_M22.86)-940.4E-06                  (X_M23.76) 48.33E-06                      

(X_M23.87) 73.02E-06                  (X_M23.95) 48.33E-06                      

(X_M23.97) 74.06E-06                  (X_M23.98) 74.06E-06                      

(X_M23.99) 48.33E-06                  (X_M24.76) 48.33E-06                      

(X_M24.87)-915.7E-06                  (X_M24.95)-940.3E-06                      

(X_M24.97) 74.06E-06                  (X_M24.98) 74.06E-06                      

(X_M24.99)-940.3E-06                  (X_M31.11) 48.33E-06                      

(X_M31.76)-940.4E-06                  (X_M31.86)-940.4E-06                      

(X_M32.11)-940.3E-06                  (X_M32.76)-34.78E-12                      

(X_M32.86)-940.4E-06                  (X_M33.76) 48.33E-06                      

(X_M33.87) 73.02E-06                  (X_M33.95) 48.33E-06                      

(X_M33.97) 74.06E-06                  (X_M33.98) 74.06E-06                      

(X_M33.99) 48.33E-06                  (X_M34.76) 48.33E-06                      

(X_M34.87)-915.7E-06                  (X_M34.95)-940.3E-06                      

(X_M34.97) 74.06E-06                  (X_M34.98) 74.06E-06                      

(X_M34.99)-940.3E-06                  (X_M41.11) 48.34E-06                      

(X_M41.76)-940.3E-06                  (X_M41.86)-940.4E-06                      

(X_M42.11)-940.4E-06                  (X_M42.76)-940.3E-06                      

(X_M42.86)-940.4E-06                  (X_M43.76) 48.34E-06                      

(X_M43.87) 73.02E-06                  (X_M43.95) 48.34E-06                      

(X_M43.97) 74.06E-06                  (X_M43.98) 74.06E-06                      

(X_M43.99) 48.34E-06                  (X_M44.76) 48.34E-06                      

(X_M44.87)-915.7E-06                  (X_M44.95)-940.4E-06                      

(X_M44.97) 74.06E-06                  (X_M44.98) 74.06E-06                      

(X_M44.99)-940.4E-06                  (X_M51.11) 48.33E-06                      

(X_M51.76)-34.78E-12                  (X_M51.86)-940.4E-06                      

(X_M52.11)-940.3E-06                  (X_M52.76)-940.4E-06                      

(X_M52.86)-940.4E-06                  (X_M53.76) 48.33E-06                      

(X_M53.87) 73.02E-06                  (X_M53.95) 48.33E-06                      

(X_M53.97) 74.06E-06                  (X_M53.98) 74.06E-06                      

(X_M53.99) 48.33E-06                  (X_M54.76) 48.33E-06                      

(X_M54.87)-915.6E-06                  (X_M54.95)-940.3E-06                      

(X_M54.97) 74.06E-06                  (X_M54.98) 74.06E-06                      

(X_M54.99)-940.3E-06                  (X_M61.11) 48.33E-06                      

(X_M61.76)-34.78E-12                  (X_M61.86)-940.4E-06                      

(X_M62.11)-940.3E-06                  (X_M62.76)-940.3E-06                      

(X_M62.86)-940.4E-06                  (X_M63.76) 48.33E-06                      

(X_M63.87) 73.02E-06                  (X_M63.95) 48.33E-06                      

(X_M63.97) 74.06E-06                  (X_M63.98) 74.06E-06                      

(X_M63.99) 48.33E-06                  (X_M64.76) 48.33E-06                      

(X_M64.87)-915.6E-06                  (X_M64.95)-940.3E-06                      

(X_M64.97) 74.06E-06                  (X_M64.98) 74.06E-06                      

(X_M64.99)-940.3E-06                  


  These voltages failed to converge:

    V(X_M13.5)                =  -452.46uV  \    48.33uV
    V(N05735)                 =  -452.46uV  \    48.33uV
    V(X_M13.95)               =  -452.46uV  \    48.33uV
    V(X_M13.99)               =  -452.46uV  \    48.33uV
    V(X_M13.76)               =  -452.46uV  \    48.33uV
    V(X_M13.87)               =  -427.77uV  \    73.02uV
    V(X_M13.8)                =   161.98mV  \   188.28mV
    V(X_M54.5)                =  -452.46uV  \    48.33uV
    V(N20242)                 =  -452.46uV  \    48.33uV
    V(X_M54.76)               =  -452.46uV  \    48.33uV
    V(X_M41.4)                =  -452.46uV  \    48.34uV
    V(X_M41.11)               =  -452.46uV  \    48.34uV
    V(X_M41.8)                =   554.16uV  \    1.049mV
    V(N19897)                 =  -452.46uV  \    48.34uV
    V(X_M23.5)                =  -452.46uV  \    48.33uV
    V(N18493)                 =  -452.46uV  \    48.33uV
    V(X_M23.95)               =  -452.46uV  \    48.33uV
    V(X_M23.99)               =  -452.46uV  \    48.33uV
    V(X_M23.76)               =  -452.46uV  \    48.33uV
    V(X_M23.87)               =  -427.77uV  \    73.02uV
    V(X_M23.8)                =   161.98mV  \   188.28mV
    V(X_M61.4)                =  -452.46uV  \    48.33uV
    V(X_M61.11)               =  -452.46uV  \    48.33uV
    V(X_M61.8)                =   554.16uV  \    1.049mV
    V(N20626)                 =  -452.46uV  \    48.33uV
    V(X_M14.5)                =  -452.46uV  \    48.33uV
    V(X_M14.76)               =  -452.46uV  \    48.33uV
    V(X_M21.4)                =  -452.46uV  \    48.33uV
    V(X_M21.11)               =  -452.46uV  \    48.33uV
    V(X_M21.8)                =   554.16uV  \    1.049mV
    V(X_M34.5)                =  -452.46uV  \    48.33uV
    V(N19574)                 =  -452.46uV  \    48.33uV
    V(X_M34.76)               =  -452.46uV  \    48.33uV
    V(X_M53.5)                =  -452.46uV  \    48.33uV
    V(X_M53.95)               =  -452.46uV  \    48.33uV
    V(X_M53.99)               =  -452.46uV  \    48.33uV
    V(X_M53.76)               =  -452.46uV  \    48.33uV
    V(X_M53.87)               =  -427.77uV  \    73.02uV
    V(X_M53.8)                =   161.98mV  \   188.28mV
    V(X_M51.4)                =  -452.46uV  \    48.33uV
    V(X_M51.11)               =  -452.46uV  \    48.33uV
    V(X_M51.8)                =   554.16uV  \    1.049mV
    V(X_M11.4)                =  -452.46uV  \    48.33uV
    V(X_M11.11)               =  -452.46uV  \    48.33uV
    V(X_M11.8)                =   554.16uV  \    1.049mV
    V(X_M33.5)                =  -452.46uV  \    48.33uV
    V(X_M33.95)               =  -452.46uV  \    48.33uV
    V(X_M33.99)               =  -452.46uV  \    48.33uV
    V(X_M33.76)               =  -452.46uV  \    48.33uV
    V(X_M33.87)               =  -427.77uV  \    73.02uV
    V(X_M33.8)                =   161.98mV  \   188.28mV
    V(X_M44.5)                =  -452.46uV  \    48.34uV
    V(X_M44.76)               =  -452.46uV  \    48.34uV
    V(X_M64.5)                =  -452.46uV  \    48.33uV
    V(X_M64.76)               =  -452.46uV  \    48.33uV
    V(X_M31.4)                =  -452.46uV  \    48.33uV
    V(X_M31.11)               =  -452.46uV  \    48.33uV
    V(X_M31.8)                =   554.16uV  \    1.049mV
    V(X_M24.5)                =  -452.46uV  \    48.33uV
    V(X_M24.76)               =  -452.46uV  \    48.33uV
    V(X_M43.5)                =  -452.46uV  \    48.34uV
    V(X_M43.95)               =  -452.46uV  \    48.34uV
    V(X_M43.99)               =  -452.46uV  \    48.34uV
    V(X_M43.76)               =  -452.46uV  \    48.34uV
    V(X_M43.87)               =  -427.77uV  \    73.03uV
    V(X_M43.8)                =   161.98mV  \   188.28mV
    V(X_M63.5)                =  -452.46uV  \    48.33uV
    V(X_M63.95)               =  -452.46uV  \    48.33uV
    V(X_M63.99)               =  -452.46uV  \    48.33uV
    V(X_M63.76)               =  -452.46uV  \    48.33uV
    V(X_M63.87)               =  -427.77uV  \    73.02uV
    V(X_M63.8)                =   161.98mV  \   188.28mV

  These supply currents failed to converge:

    I(X_M13.LS)               =    6.103pA  \   515.52fA
    I(X_M13.LD)               =   -6.290pA  \   516.90fA
    I(X_M13.LG)               =   187.03fA  \   -1.032pA
    I(X_M54.LS)               =    6.103pA  \   515.51fA
    I(X_M54.LD)               =   -6.103pA  \  -516.42fA
    I(X_M41.LD)               =    12.39pA  \ -450.70e-18A
    I(X_M41.LG)               =   -12.39pA  \    1.381fA
    I(X_M23.LS)               =    6.103pA  \   515.51fA
    I(X_M23.LD)               =   -6.290pA  \   516.89fA
    I(X_M23.LG)               =   187.03fA  \   -1.032pA
    I(X_M61.LD)               =    23.11pA  \    10.71pA
    I(X_M61.LG)               =   -12.39pA  \    1.379fA
    I(X_M14.LS)               =    6.103pA  \   515.52fA
    I(X_M14.LD)               =   -6.103pA  \  -515.56fA
    I(X_M21.LD)               =    23.11pA  \    10.71pA
    I(X_M21.LG)               =   -12.39pA  \    1.379fA
    I(X_M34.LS)               =    6.103pA  \   515.51fA
    I(X_M34.LD)               =   -6.103pA  \  -516.43fA
    I(X_M53.LS)               =    6.103pA  \   515.51fA
    I(X_M53.LD)               =   -6.290pA  \   516.89fA
    I(X_M53.LG)               =   187.02fA  \   -1.032pA
    I(X_M51.LD)               =    23.11pA  \    10.71pA
    I(X_M51.LG)               =   -12.39pA  \    1.380fA
    I(X_M11.LD)               =    12.39pA  \ -773.33e-18A
    I(X_M11.LG)               =   -12.39pA  \    1.379fA
    I(X_M33.LS)               =    6.103pA  \   515.51fA
    I(X_M33.LD)               =   -6.290pA  \   516.89fA
    I(X_M33.LG)               =   187.03fA  \   -1.032pA
    I(X_M44.LS)               =    6.103pA  \   515.42fA
    I(X_M44.LD)               =   -6.103pA  \  -516.33fA
    I(X_M64.LS)               =    6.103pA  \   515.50fA
    I(X_M64.LD)               =   -6.103pA  \  -516.42fA
    I(X_M31.LD)               =    12.39pA  \ -924.88e-18A
    I(X_M31.LG)               =   -12.39pA  \    1.380fA
    I(X_M24.LS)               =    6.103pA  \   515.51fA
    I(X_M24.LD)               =   -6.103pA  \  -516.43fA
    I(X_M43.LS)               =    6.103pA  \   515.42fA
    I(X_M43.LD)               =   -6.290pA  \   516.80fA
    I(X_M43.LG)               =   187.01fA  \   -1.032pA
    I(X_M63.LS)               =    6.103pA  \   515.50fA
    I(X_M63.LD)               =   -6.290pA  \   516.88fA
    I(X_M63.LG)               =   187.02fA  \   -1.032pA
    I(V_V3)                   =   -12.39pA  \ 463.64e-18A
    I(V_V4)                   =   -12.39pA  \ 465.58e-18A
    I(V_V6)                   =   -12.39pA  \ 464.29e-18A
    I(V_V1)                   =   -12.39pA  \    1.334fA
    I(V_V2)                   =   -12.39pA  \ 463.72e-18A
    I(V_V5)                   =   -12.39pA  \ 463.49e-18A
    I(X_M13.VGC)              =   187.03fA  \   -1.032pA
    I(X_M23.VGC)              =   187.03fA  \   -1.032pA
    I(X_M53.VGC)              =   187.02fA  \   -1.032pA
    I(X_M33.VGC)              =   187.03fA  \   -1.032pA
    I(X_M43.VGC)              =   187.01fA  \   -1.032pA
    I(X_M63.VGC)              =   187.02fA  \   -1.032pA

  These devices failed to converge:
    X_M13.DGD X_M23.DGD X_M53.DGD X_M33.DGD X_M43.DGD X_M63.DGD X_M13.M2  
    X_M13.M3  X_M41.M2  X_M41.M3  X_M23.M2  X_M23.M3  X_M61.M2  X_M61.M3  
    X_M21.M2  X_M21.M3  X_M53.M2  X_M53.M3  X_M51.M2  X_M51.M3  X_M11.M2  
    X_M11.M3  X_M33.M2  X_M33.M3  X_M31.M2  X_M31.M3  X_M43.M2  X_M43.M3  
    X_M63.M2  X_M63.M3  
