
**** 06/24/18 22:54:08 ********* PSpice 9.2 (Mar 2000) ******** ID# 0 ********

 ** Profile: "SCHEMATIC1-sm"  [ E:\AZ\Gm_c filter\2\gmc-schematic1-sm.sim ] 


 ****     CIRCUIT DESCRIPTION


******************************************************************************




** Creating circuit file "gmc-schematic1-sm.sim.cir" 
** WARNING: THIS AUTOMATICALLY GENERATED FILE MAY BE OVERWRITTEN BY SUBSEQUENT SIMULATIONS

*Libraries: 
* Local Libraries :
* From [PSPICE NETLIST] section of C:\Program Files\Orcad\PSpice\PSpice.ini file:
.lib "nom.lib" 

*Analysis directives: 
.AC DEC 100 1 300mega
.PROBE V(*) I(*) W(*) D(*) NOISE(*) 
.INC ".\gmc-SCHEMATIC1.net" 



**** INCLUDING gmc-SCHEMATIC1.net ****
* source GMC
X_M13         N05735 N05735 N05995 BSS119/SIE
I_I1         N05885 0 DC 1000mAdc  
X_M32         IO2 0 N19632 BSS110/SIE
X_M54         IO5 N20242 N20288 BSS119/SIE
X_M41         N19897 IO5 N19955 BSS110/SIE
X_M23         N18493 N18493 N18539 BSS119/SIE
X_M61         N20626 0 N20684 BSS110/SIE
X_M14         IO1 N05735 N05995 BSS119/SIE
V_V3         N19620 0 6Vdc
I_I4         N19955 0 DC 1000mAdc  
X_M21         N18493 IO1 N18551 BSS110/SIE
I_I6         N20684 0 DC 1000mAdc  
X_M34         IO2 N19574 N19620 BSS119/SIE
C_C1         0 IO2  80n  
X_M53         N20242 N20242 N20288 BSS119/SIE
C_C2         0 IO4  78n  
X_M42         IO4 IO2 N19955 BSS110/SIE
I_I2         N18551 0 DC 1000mAdc  
X_M62         IO5 IO5 N20684 BSS110/SIE
V_V7         IO1 0 DC 0Vdc AC 1Vac 
X_M51         N20242 0 N20300 BSS110/SIE
V_V4         N19943 0 6Vdc
X_M11         N05735 IO2 N05885 BSS110/SIE
V_V6         N20672 0 6Vdc
X_M33         N19574 N19574 N19620 BSS119/SIE
X_M22         IO2 IO2 N18551 BSS110/SIE
V_V1         N05995 0 6Vdc
X_M44         IO4 N19897 N19943 BSS119/SIE
X_M12         IO1 IO1 N05885 BSS110/SIE
X_M64         IO5 N20626 N20672 BSS119/SIE
I_I5         N20300 0 DC 1000mAdc  
V_V2         N18539 0 6Vdc
X_M31         N19574 IO4 N19632 BSS110/SIE
X_M24         IO2 N18493 N18539 BSS119/SIE
X_M52         IO5 IO4 N20300 BSS110/SIE
X_M43         N19897 N19897 N19943 BSS119/SIE
I_I3         N19632 0 DC 1000mAdc  
X_M63         N20626 N20626 N20672 BSS119/SIE
V_V5         N20288 0 6Vdc

**** RESUMING gmc-schematic1-sm.sim.cir ****
.END

**** 06/24/18 22:54:08 ********* PSpice 9.2 (Mar 2000) ******** ID# 0 ********

 ** Profile: "SCHEMATIC1-sm"  [ E:\AZ\Gm_c filter\2\gmc-schematic1-sm.sim ] 


 ****     Diode MODEL PARAMETERS


******************************************************************************




               X_M13.DREV      X_M13.DCGD      X_M32.DREV      X_M32.DCGD      
          IS  300.000000E-12   10.000000E-15  300.000000E-12   10.000000E-15 
          BV  100                              50                            
          RS     .02                             .02                         
          TT   30.000000E-09                   60.000000E-09                 
         CJO   25.000000E-12   22.400000E-12   35.000000E-12  183.000000E-12 
          VJ                    1.082                           1.097        
           M                     .688                            .439        


               X_M54.DREV      X_M54.DCGD      X_M41.DREV      X_M41.DCGD      
          IS  300.000000E-12   10.000000E-15  300.000000E-12   10.000000E-15 
          BV  100                              50                            
          RS     .02                             .02                         
          TT   30.000000E-09                   60.000000E-09                 
         CJO   25.000000E-12   22.400000E-12   35.000000E-12  183.000000E-12 
          VJ                    1.082                           1.097        
           M                     .688                            .439        


               X_M23.DREV      X_M23.DCGD      X_M61.DREV      X_M61.DCGD      
          IS  300.000000E-12   10.000000E-15  300.000000E-12   10.000000E-15 
          BV  100                              50                            
          RS     .02                             .02                         
          TT   30.000000E-09                   60.000000E-09                 
         CJO   25.000000E-12   22.400000E-12   35.000000E-12  183.000000E-12 
          VJ                    1.082                           1.097        
           M                     .688                            .439        


               X_M14.DREV      X_M14.DCGD      X_M21.DREV      X_M21.DCGD      
          IS  300.000000E-12   10.000000E-15  300.000000E-12   10.000000E-15 
          BV  100                              50                            
          RS     .02                             .02                         
          TT   30.000000E-09                   60.000000E-09                 
         CJO   25.000000E-12   22.400000E-12   35.000000E-12  183.000000E-12 
          VJ                    1.082                           1.097        
           M                     .688                            .439        


               X_M34.DREV      X_M34.DCGD      X_M53.DREV      X_M53.DCGD      
          IS  300.000000E-12   10.000000E-15  300.000000E-12   10.000000E-15 
          BV  100                             100                            
          RS     .02                             .02                         
          TT   30.000000E-09                   30.000000E-09                 
         CJO   25.000000E-12   22.400000E-12   25.000000E-12   22.400000E-12 
          VJ                    1.082                           1.082        
           M                     .688                            .688        


               X_M42.DREV      X_M42.DCGD      X_M62.DREV      X_M62.DCGD      
          IS  300.000000E-12   10.000000E-15  300.000000E-12   10.000000E-15 
          BV   50                              50                            
          RS     .02                             .02                         
          TT   60.000000E-09                   60.000000E-09                 
         CJO   35.000000E-12  183.000000E-12   35.000000E-12  183.000000E-12 
          VJ                    1.097                           1.097        
           M                     .439                            .439        


               X_M51.DREV      X_M51.DCGD      X_M11.DREV      X_M11.DCGD      
          IS  300.000000E-12   10.000000E-15  300.000000E-12   10.000000E-15 
          BV   50                              50                            
          RS     .02                             .02                         
          TT   60.000000E-09                   60.000000E-09                 
         CJO   35.000000E-12  183.000000E-12   35.000000E-12  183.000000E-12 
          VJ                    1.097                           1.097        
           M                     .439                            .439        


               X_M33.DREV      X_M33.DCGD      X_M22.DREV      X_M22.DCGD      
          IS  300.000000E-12   10.000000E-15  300.000000E-12   10.000000E-15 
          BV  100                              50                            
          RS     .02                             .02                         
          TT   30.000000E-09                   60.000000E-09                 
         CJO   25.000000E-12   22.400000E-12   35.000000E-12  183.000000E-12 
          VJ                    1.082                           1.097        
           M                     .688                            .439        


               X_M44.DREV      X_M44.DCGD      X_M12.DREV      X_M12.DCGD      
          IS  300.000000E-12   10.000000E-15  300.000000E-12   10.000000E-15 
          BV  100                              50                            
          RS     .02                             .02                         
          TT   30.000000E-09                   60.000000E-09                 
         CJO   25.000000E-12   22.400000E-12   35.000000E-12  183.000000E-12 
          VJ                    1.082                           1.097        
           M                     .688                            .439        


               X_M64.DREV      X_M64.DCGD      X_M31.DREV      X_M31.DCGD      
          IS  300.000000E-12   10.000000E-15  300.000000E-12   10.000000E-15 
          BV  100                              50                            
          RS     .02                             .02                         
          TT   30.000000E-09                   60.000000E-09                 
         CJO   25.000000E-12   22.400000E-12   35.000000E-12  183.000000E-12 
          VJ                    1.082                           1.097        
           M                     .688                            .439        


               X_M24.DREV      X_M24.DCGD      X_M52.DREV      X_M52.DCGD      
          IS  300.000000E-12   10.000000E-15  300.000000E-12   10.000000E-15 
          BV  100                              50                            
          RS     .02                             .02                         
          TT   30.000000E-09                   60.000000E-09                 
         CJO   25.000000E-12   22.400000E-12   35.000000E-12  183.000000E-12 
          VJ                    1.082                           1.097        
           M                     .688                            .439        


               X_M43.DREV      X_M43.DCGD      X_M63.DREV      X_M63.DCGD      
          IS  300.000000E-12   10.000000E-15  300.000000E-12   10.000000E-15 
          BV  100                             100                            
          RS     .02                             .02                         
          TT   30.000000E-09                   30.000000E-09                 
         CJO   25.000000E-12   22.400000E-12   25.000000E-12   22.400000E-12 
          VJ                    1.082                           1.082        
           M                     .688                            .688        


**** 06/24/18 22:54:08 ********* PSpice 9.2 (Mar 2000) ******** ID# 0 ********

 ** Profile: "SCHEMATIC1-sm"  [ E:\AZ\Gm_c filter\2\gmc-schematic1-sm.sim ] 


 ****     MOSFET MODEL PARAMETERS


******************************************************************************




               X_M13.MBUZ      X_M13.MSW       X_M13.MVRD      X_M32.MBUZ      
               NMOS            NMOS            NMOS            PMOS            
       LEVEL    1               1               1               1            
           L  100.000000E-06  100.000000E-06  100.000000E-06  100.000000E-06 
           W  100.000000E-06  100.000000E-06  100.000000E-06  100.000000E-06 
         VTO    1.999           1.000000E-03   -4.859          -1.462        
          KP     .134            .5              .073            .04         
       GAMMA    0               0               0               0            
         PHI     .6              .6              .6              .6          
      LAMBDA    0               0               0               0            
          IS   10.000000E-15   10.000000E-15   10.000000E-15   10.000000E-15 
          JS    0               0               0               0            
          PB     .8              .8              .8              .8          
        PBSW     .8              .8              .8              .8          
          CJ    0               0               0               0            
        CJSW    0               0               0               0            
        CGSO    0               0               0               0            
        CGDO    0               0               0               0            
        CGBO    0               0               0               0            
         TOX    0               0               0               0            
          XJ    0               0               0               0            
       UCRIT   10.000000E+03   10.000000E+03   10.000000E+03   10.000000E+03 
      DIOMOD    1               1               1               1            
         VFB    0               0               0               0            
        LETA    0               0               0               0            
        WETA    0               0               0               0            
          U0    0               0               0               0            
        TEMP    0               0               0               0            
         VDD    0               0               0               0            
       XPART    0               0               0               0            


               X_M32.MSW       X_M54.MBUZ      X_M54.MSW       X_M54.MVRD      
               PMOS            NMOS            NMOS            NMOS            
       LEVEL    1               1               1               1            
           L  100.000000E-06  100.000000E-06  100.000000E-06  100.000000E-06 
           W  100.000000E-06  100.000000E-06  100.000000E-06  100.000000E-06 
         VTO   -1.000000E-03    1.999           1.000000E-03   -4.859        
          KP    5                .134            .5              .073        
       GAMMA    0               0               0               0            
         PHI     .6              .6              .6              .6          
      LAMBDA    0               0               0               0            
          IS   10.000000E-15   10.000000E-15   10.000000E-15   10.000000E-15 
          JS    0               0               0               0            
          PB     .8              .8              .8              .8          
        PBSW     .8              .8              .8              .8          
          CJ    0               0               0               0            
        CJSW    0               0               0               0            
        CGSO    0               0               0               0            
        CGDO    0               0               0               0            
        CGBO    0               0               0               0            
         TOX    0               0               0               0            
          XJ    0               0               0               0            
       UCRIT   10.000000E+03   10.000000E+03   10.000000E+03   10.000000E+03 
      DIOMOD    1               1               1               1            
         VFB    0               0               0               0            
        LETA    0               0               0               0            
        WETA    0               0               0               0            
          U0    0               0               0               0            
        TEMP    0               0               0               0            
         VDD    0               0               0               0            
       XPART    0               0               0               0            


               X_M41.MBUZ      X_M41.MSW       X_M23.MBUZ      X_M23.MSW       
               PMOS            PMOS            NMOS            NMOS            
       LEVEL    1               1               1               1            
           L  100.000000E-06  100.000000E-06  100.000000E-06  100.000000E-06 
           W  100.000000E-06  100.000000E-06  100.000000E-06  100.000000E-06 
         VTO   -1.462          -1.000000E-03    1.999           1.000000E-03 
          KP     .04            5                .134            .5          
       GAMMA    0               0               0               0            
         PHI     .6              .6              .6              .6          
      LAMBDA    0               0               0               0            
          IS   10.000000E-15   10.000000E-15   10.000000E-15   10.000000E-15 
          JS    0               0               0               0            
          PB     .8              .8              .8              .8          
        PBSW     .8              .8              .8              .8          
          CJ    0               0               0               0            
        CJSW    0               0               0               0            
        CGSO    0               0               0               0            
        CGDO    0               0               0               0            
        CGBO    0               0               0               0            
         TOX    0               0               0               0            
          XJ    0               0               0               0            
       UCRIT   10.000000E+03   10.000000E+03   10.000000E+03   10.000000E+03 
      DIOMOD    1               1               1               1            
         VFB    0               0               0               0            
        LETA    0               0               0               0            
        WETA    0               0               0               0            
          U0    0               0               0               0            
        TEMP    0               0               0               0            
         VDD    0               0               0               0            
       XPART    0               0               0               0            


               X_M23.MVRD      X_M61.MBUZ      X_M61.MSW       X_M14.MBUZ      
               NMOS            PMOS            PMOS            NMOS            
       LEVEL    1               1               1               1            
           L  100.000000E-06  100.000000E-06  100.000000E-06  100.000000E-06 
           W  100.000000E-06  100.000000E-06  100.000000E-06  100.000000E-06 
         VTO   -4.859          -1.462          -1.000000E-03    1.999        
          KP     .073            .04            5                .134        
       GAMMA    0               0               0               0            
         PHI     .6              .6              .6              .6          
      LAMBDA    0               0               0               0            
          IS   10.000000E-15   10.000000E-15   10.000000E-15   10.000000E-15 
          JS    0               0               0               0            
          PB     .8              .8              .8              .8          
        PBSW     .8              .8              .8              .8          
          CJ    0               0               0               0            
        CJSW    0               0               0               0            
        CGSO    0               0               0               0            
        CGDO    0               0               0               0            
        CGBO    0               0               0               0            
         TOX    0               0               0               0            
          XJ    0               0               0               0            
       UCRIT   10.000000E+03   10.000000E+03   10.000000E+03   10.000000E+03 
      DIOMOD    1               1               1               1            
         VFB    0               0               0               0            
        LETA    0               0               0               0            
        WETA    0               0               0               0            
          U0    0               0               0               0            
        TEMP    0               0               0               0            
         VDD    0               0               0               0            
       XPART    0               0               0               0            


               X_M14.MSW       X_M14.MVRD      X_M21.MBUZ      X_M21.MSW       
               NMOS            NMOS            PMOS            PMOS            
       LEVEL    1               1               1               1            
           L  100.000000E-06  100.000000E-06  100.000000E-06  100.000000E-06 
           W  100.000000E-06  100.000000E-06  100.000000E-06  100.000000E-06 
         VTO    1.000000E-03   -4.859          -1.462          -1.000000E-03 
          KP     .5              .073            .04            5            
       GAMMA    0               0               0               0            
         PHI     .6              .6              .6              .6          
      LAMBDA    0               0               0               0            
          IS   10.000000E-15   10.000000E-15   10.000000E-15   10.000000E-15 
          JS    0               0               0               0            
          PB     .8              .8              .8              .8          
        PBSW     .8              .8              .8              .8          
          CJ    0               0               0               0            
        CJSW    0               0               0               0            
        CGSO    0               0               0               0            
        CGDO    0               0               0               0            
        CGBO    0               0               0               0            
         TOX    0               0               0               0            
          XJ    0               0               0               0            
       UCRIT   10.000000E+03   10.000000E+03   10.000000E+03   10.000000E+03 
      DIOMOD    1               1               1               1            
         VFB    0               0               0               0            
        LETA    0               0               0               0            
        WETA    0               0               0               0            
          U0    0               0               0               0            
        TEMP    0               0               0               0            
         VDD    0               0               0               0            
       XPART    0               0               0               0            


               X_M34.MBUZ      X_M34.MSW       X_M34.MVRD      X_M53.MBUZ      
               NMOS            NMOS            NMOS            NMOS            
       LEVEL    1               1               1               1            
           L  100.000000E-06  100.000000E-06  100.000000E-06  100.000000E-06 
           W  100.000000E-06  100.000000E-06  100.000000E-06  100.000000E-06 
         VTO    1.999           1.000000E-03   -4.859           1.999        
          KP     .134            .5              .073            .134        
       GAMMA    0               0               0               0            
         PHI     .6              .6              .6              .6          
      LAMBDA    0               0               0               0            
          IS   10.000000E-15   10.000000E-15   10.000000E-15   10.000000E-15 
          JS    0               0               0               0            
          PB     .8              .8              .8              .8          
        PBSW     .8              .8              .8              .8          
          CJ    0               0               0               0            
        CJSW    0               0               0               0            
        CGSO    0               0               0               0            
        CGDO    0               0               0               0            
        CGBO    0               0               0               0            
         TOX    0               0               0               0            
          XJ    0               0               0               0            
       UCRIT   10.000000E+03   10.000000E+03   10.000000E+03   10.000000E+03 
      DIOMOD    1               1               1               1            
         VFB    0               0               0               0            
        LETA    0               0               0               0            
        WETA    0               0               0               0            
          U0    0               0               0               0            
        TEMP    0               0               0               0            
         VDD    0               0               0               0            
       XPART    0               0               0               0            


               X_M53.MSW       X_M53.MVRD      X_M42.MBUZ      X_M42.MSW       
               NMOS            NMOS            PMOS            PMOS            
       LEVEL    1               1               1               1            
           L  100.000000E-06  100.000000E-06  100.000000E-06  100.000000E-06 
           W  100.000000E-06  100.000000E-06  100.000000E-06  100.000000E-06 
         VTO    1.000000E-03   -4.859          -1.462          -1.000000E-03 
          KP     .5              .073            .04            5            
       GAMMA    0               0               0               0            
         PHI     .6              .6              .6              .6          
      LAMBDA    0               0               0               0            
          IS   10.000000E-15   10.000000E-15   10.000000E-15   10.000000E-15 
          JS    0               0               0               0            
          PB     .8              .8              .8              .8          
        PBSW     .8              .8              .8              .8          
          CJ    0               0               0               0            
        CJSW    0               0               0               0            
        CGSO    0               0               0               0            
        CGDO    0               0               0               0            
        CGBO    0               0               0               0            
         TOX    0               0               0               0            
          XJ    0               0               0               0            
       UCRIT   10.000000E+03   10.000000E+03   10.000000E+03   10.000000E+03 
      DIOMOD    1               1               1               1            
         VFB    0               0               0               0            
        LETA    0               0               0               0            
        WETA    0               0               0               0            
          U0    0               0               0               0            
        TEMP    0               0               0               0            
         VDD    0               0               0               0            
       XPART    0               0               0               0            


               X_M62.MBUZ      X_M62.MSW       X_M51.MBUZ      X_M51.MSW       
               PMOS            PMOS            PMOS            PMOS            
       LEVEL    1               1               1               1            
           L  100.000000E-06  100.000000E-06  100.000000E-06  100.000000E-06 
           W  100.000000E-06  100.000000E-06  100.000000E-06  100.000000E-06 
         VTO   -1.462          -1.000000E-03   -1.462          -1.000000E-03 
          KP     .04            5                .04            5            
       GAMMA    0               0               0               0            
         PHI     .6              .6              .6              .6          
      LAMBDA    0               0               0               0            
          IS   10.000000E-15   10.000000E-15   10.000000E-15   10.000000E-15 
          JS    0               0               0               0            
          PB     .8              .8              .8              .8          
        PBSW     .8              .8              .8              .8          
          CJ    0               0               0               0            
        CJSW    0               0               0               0            
        CGSO    0               0               0               0            
        CGDO    0               0               0               0            
        CGBO    0               0               0               0            
         TOX    0               0               0               0            
          XJ    0               0               0               0            
       UCRIT   10.000000E+03   10.000000E+03   10.000000E+03   10.000000E+03 
      DIOMOD    1               1               1               1            
         VFB    0               0               0               0            
        LETA    0               0               0               0            
        WETA    0               0               0               0            
          U0    0               0               0               0            
        TEMP    0               0               0               0            
         VDD    0               0               0               0            
       XPART    0               0               0               0            


               X_M11.MBUZ      X_M11.MSW       X_M33.MBUZ      X_M33.MSW       
               PMOS            PMOS            NMOS            NMOS            
       LEVEL    1               1               1               1            
           L  100.000000E-06  100.000000E-06  100.000000E-06  100.000000E-06 
           W  100.000000E-06  100.000000E-06  100.000000E-06  100.000000E-06 
         VTO   -1.462          -1.000000E-03    1.999           1.000000E-03 
          KP     .04            5                .134            .5          
       GAMMA    0               0               0               0            
         PHI     .6              .6              .6              .6          
      LAMBDA    0               0               0               0            
          IS   10.000000E-15   10.000000E-15   10.000000E-15   10.000000E-15 
          JS    0               0               0               0            
          PB     .8              .8              .8              .8          
        PBSW     .8              .8              .8              .8          
          CJ    0               0               0               0            
        CJSW    0               0               0               0            
        CGSO    0               0               0               0            
        CGDO    0               0               0               0            
        CGBO    0               0               0               0            
         TOX    0               0               0               0            
          XJ    0               0               0               0            
       UCRIT   10.000000E+03   10.000000E+03   10.000000E+03   10.000000E+03 
      DIOMOD    1               1               1               1            
         VFB    0               0               0               0            
        LETA    0               0               0               0            
        WETA    0               0               0               0            
          U0    0               0               0               0            
        TEMP    0               0               0               0            
         VDD    0               0               0               0            
       XPART    0               0               0               0            


               X_M33.MVRD      X_M22.MBUZ      X_M22.MSW       X_M44.MBUZ      
               NMOS            PMOS            PMOS            NMOS            
       LEVEL    1               1               1               1            
           L  100.000000E-06  100.000000E-06  100.000000E-06  100.000000E-06 
           W  100.000000E-06  100.000000E-06  100.000000E-06  100.000000E-06 
         VTO   -4.859          -1.462          -1.000000E-03    1.999        
          KP     .073            .04            5                .134        
       GAMMA    0               0               0               0            
         PHI     .6              .6              .6              .6          
      LAMBDA    0               0               0               0            
          IS   10.000000E-15   10.000000E-15   10.000000E-15   10.000000E-15 
          JS    0               0               0               0            
          PB     .8              .8              .8              .8          
        PBSW     .8              .8              .8              .8          
          CJ    0               0               0               0            
        CJSW    0               0               0               0            
        CGSO    0               0               0               0            
        CGDO    0               0               0               0            
        CGBO    0               0               0               0            
         TOX    0               0               0               0            
          XJ    0               0               0               0            
       UCRIT   10.000000E+03   10.000000E+03   10.000000E+03   10.000000E+03 
      DIOMOD    1               1               1               1            
         VFB    0               0               0               0            
        LETA    0               0               0               0            
        WETA    0               0               0               0            
          U0    0               0               0               0            
        TEMP    0               0               0               0            
         VDD    0               0               0               0            
       XPART    0               0               0               0            


               X_M44.MSW       X_M44.MVRD      X_M12.MBUZ      X_M12.MSW       
               NMOS            NMOS            PMOS            PMOS            
       LEVEL    1               1               1               1            
           L  100.000000E-06  100.000000E-06  100.000000E-06  100.000000E-06 
           W  100.000000E-06  100.000000E-06  100.000000E-06  100.000000E-06 
         VTO    1.000000E-03   -4.859          -1.462          -1.000000E-03 
          KP     .5              .073            .04            5            
       GAMMA    0               0               0               0            
         PHI     .6              .6              .6              .6          
      LAMBDA    0               0               0               0            
          IS   10.000000E-15   10.000000E-15   10.000000E-15   10.000000E-15 
          JS    0               0               0               0            
          PB     .8              .8              .8              .8          
        PBSW     .8              .8              .8              .8          
          CJ    0               0               0               0            
        CJSW    0               0               0               0            
        CGSO    0               0               0               0            
        CGDO    0               0               0               0            
        CGBO    0               0               0               0            
         TOX    0               0               0               0            
          XJ    0               0               0               0            
       UCRIT   10.000000E+03   10.000000E+03   10.000000E+03   10.000000E+03 
      DIOMOD    1               1               1               1            
         VFB    0               0               0               0            
        LETA    0               0               0               0            
        WETA    0               0               0               0            
          U0    0               0               0               0            
        TEMP    0               0               0               0            
         VDD    0               0               0               0            
       XPART    0               0               0               0            


               X_M64.MBUZ      X_M64.MSW       X_M64.MVRD      X_M31.MBUZ      
               NMOS            NMOS            NMOS            PMOS            
       LEVEL    1               1               1               1            
           L  100.000000E-06  100.000000E-06  100.000000E-06  100.000000E-06 
           W  100.000000E-06  100.000000E-06  100.000000E-06  100.000000E-06 
         VTO    1.999           1.000000E-03   -4.859          -1.462        
          KP     .134            .5              .073            .04         
       GAMMA    0               0               0               0            
         PHI     .6              .6              .6              .6          
      LAMBDA    0               0               0               0            
          IS   10.000000E-15   10.000000E-15   10.000000E-15   10.000000E-15 
          JS    0               0               0               0            
          PB     .8              .8              .8              .8          
        PBSW     .8              .8              .8              .8          
          CJ    0               0               0               0            
        CJSW    0               0               0               0            
        CGSO    0               0               0               0            
        CGDO    0               0               0               0            
        CGBO    0               0               0               0            
         TOX    0               0               0               0            
          XJ    0               0               0               0            
       UCRIT   10.000000E+03   10.000000E+03   10.000000E+03   10.000000E+03 
      DIOMOD    1               1               1               1            
         VFB    0               0               0               0            
        LETA    0               0               0               0            
        WETA    0               0               0               0            
          U0    0               0               0               0            
        TEMP    0               0               0               0            
         VDD    0               0               0               0            
       XPART    0               0               0               0            


               X_M31.MSW       X_M24.MBUZ      X_M24.MSW       X_M24.MVRD      
               PMOS            NMOS            NMOS            NMOS            
       LEVEL    1               1               1               1            
           L  100.000000E-06  100.000000E-06  100.000000E-06  100.000000E-06 
           W  100.000000E-06  100.000000E-06  100.000000E-06  100.000000E-06 
         VTO   -1.000000E-03    1.999           1.000000E-03   -4.859        
          KP    5                .134            .5              .073        
       GAMMA    0               0               0               0            
         PHI     .6              .6              .6              .6          
      LAMBDA    0               0               0               0            
          IS   10.000000E-15   10.000000E-15   10.000000E-15   10.000000E-15 
          JS    0               0               0               0            
          PB     .8              .8              .8              .8          
        PBSW     .8              .8              .8              .8          
          CJ    0               0               0               0            
        CJSW    0               0               0               0            
        CGSO    0               0               0               0            
        CGDO    0               0               0               0            
        CGBO    0               0               0               0            
         TOX    0               0               0               0            
          XJ    0               0               0               0            
       UCRIT   10.000000E+03   10.000000E+03   10.000000E+03   10.000000E+03 
      DIOMOD    1               1               1               1            
         VFB    0               0               0               0            
        LETA    0               0               0               0            
        WETA    0               0               0               0            
          U0    0               0               0               0            
        TEMP    0               0               0               0            
         VDD    0               0               0               0            
       XPART    0               0               0               0            


               X_M52.MBUZ      X_M52.MSW       X_M43.MBUZ      X_M43.MSW       
               PMOS            PMOS            NMOS            NMOS            
       LEVEL    1               1               1               1            
           L  100.000000E-06  100.000000E-06  100.000000E-06  100.000000E-06 
           W  100.000000E-06  100.000000E-06  100.000000E-06  100.000000E-06 
         VTO   -1.462          -1.000000E-03    1.999           1.000000E-03 
          KP     .04            5                .134            .5          
       GAMMA    0               0               0               0            
         PHI     .6              .6              .6              .6          
      LAMBDA    0               0               0               0            
          IS   10.000000E-15   10.000000E-15   10.000000E-15   10.000000E-15 
          JS    0               0               0               0            
          PB     .8              .8              .8              .8          
        PBSW     .8              .8              .8              .8          
          CJ    0               0               0               0            
        CJSW    0               0               0               0            
        CGSO    0               0               0               0            
        CGDO    0               0               0               0            
        CGBO    0               0               0               0            
         TOX    0               0               0               0            
          XJ    0               0               0               0            
       UCRIT   10.000000E+03   10.000000E+03   10.000000E+03   10.000000E+03 
      DIOMOD    1               1               1               1            
         VFB    0               0               0               0            
        LETA    0               0               0               0            
        WETA    0               0               0               0            
          U0    0               0               0               0            
        TEMP    0               0               0               0            
         VDD    0               0               0               0            
       XPART    0               0               0               0            


               X_M43.MVRD      X_M63.MBUZ      X_M63.MSW       X_M63.MVRD      
               NMOS            NMOS            NMOS            NMOS            
       LEVEL    1               1               1               1            
           L  100.000000E-06  100.000000E-06  100.000000E-06  100.000000E-06 
           W  100.000000E-06  100.000000E-06  100.000000E-06  100.000000E-06 
         VTO   -4.859           1.999           1.000000E-03   -4.859        
          KP     .073            .134            .5              .073        
       GAMMA    0               0               0               0            
         PHI     .6              .6              .6              .6          
      LAMBDA    0               0               0               0            
          IS   10.000000E-15   10.000000E-15   10.000000E-15   10.000000E-15 
          JS    0               0               0               0            
          PB     .8              .8              .8              .8          
        PBSW     .8              .8              .8              .8          
          CJ    0               0               0               0            
        CJSW    0               0               0               0            
        CGSO    0               0               0               0            
        CGDO    0               0               0               0            
        CGBO    0               0               0               0            
         TOX    0               0               0               0            
          XJ    0               0               0               0            
       UCRIT   10.000000E+03   10.000000E+03   10.000000E+03   10.000000E+03 
      DIOMOD    1               1               1               1            
         VFB    0               0               0               0            
        LETA    0               0               0               0            
        WETA    0               0               0               0            
          U0    0               0               0               0            
        TEMP    0               0               0               0            
         VDD    0               0               0               0            
       XPART    0               0               0               0            


**** 06/24/18 22:54:08 ********* PSpice 9.2 (Mar 2000) ******** ID# 0 ********

 ** Profile: "SCHEMATIC1-sm"  [ E:\AZ\Gm_c filter\2\gmc-schematic1-sm.sim ] 


 ****     SMALL SIGNAL BIAS SOLUTION       TEMPERATURE =   27.000 DEG C


******************************************************************************



 NODE   VOLTAGE     NODE   VOLTAGE     NODE   VOLTAGE     NODE   VOLTAGE


(  IO1)    0.0000  (  IO2)  -56.3640  (  IO4)  -11.3790  (  IO5)  -57.0270      

(N05735)    5.9940 (N05885)  -54.8480 (N05995)    6.0000 (N18493)    5.9940     

(N18539)    6.0000 (N18551)  -54.8480 (N19574)    5.9987 (N19620)    6.0000     

(N19632)   -7.5413 (N19897)    5.9874 (N19943)    6.0000 (N19955) -108.9100     

(N20242)    5.9980 (N20288)    6.0000 (N20300)  -15.2400 (N20626)    5.9940     

(N20672)    6.0000 (N20684)  -55.1770 (X_M11.4)    5.9940                       

(X_M11.5)  -56.3640                   (X_M11.8)    5.9940                       

(X_M12.4)    0.0000                   (X_M12.5)    0.0000                       

(X_M12.8)-1.004E-12                   (X_M13.5)    5.9940                       

(X_M13.8)    6.0000                   (X_M14.5)    5.9940                       

(X_M14.8)    2.0000                   (X_M21.4)    5.9940                       

(X_M21.5)    0.0000                   (X_M21.8)    5.9940                       

(X_M22.4)  -56.3640                   (X_M22.5)  -56.3640                       

(X_M22.8)  -54.8480                   (X_M23.5)    5.9940                       

(X_M23.8)    6.0000                   (X_M24.5)    5.9940                       

(X_M24.8)  -54.3640                   (X_M31.4)    5.9987                       

(X_M31.5)  -11.3790                   (X_M31.8)    5.9987                       

(X_M32.4)  -56.3640                   (X_M32.5)    0.0000                       

(X_M32.8)   -7.5413                   (X_M33.5)    5.9987                       

(X_M33.8)    6.0000                   (X_M34.5)    5.9987                       

(X_M34.8)  -54.3640                   (X_M41.4)    5.9874                       

(X_M41.5)  -57.0270                   (X_M41.8)    5.9874                       

(X_M42.4)  -11.3790                   (X_M42.5)  -56.3640                       

(X_M42.8)  -11.3790                   (X_M43.5)    5.9874                       

(X_M43.8)    6.0000                   (X_M44.5)    5.9874                       

(X_M44.8)   -9.3789                   (X_M51.4)    5.9980                       

(X_M51.5)    0.0000                   (X_M51.8)    5.9980                       

(X_M52.4)  -57.0270                   (X_M52.5)  -11.3790                       

(X_M52.8)  -15.2400                   (X_M53.5)    5.9980                       

(X_M53.8)    6.0000                   (X_M54.5)    5.9980                       

(X_M54.8)  -55.0270                   (X_M61.4)    5.9940                       

(X_M61.5)    0.0000                   (X_M61.8)    5.9940                       

(X_M62.4)  -57.0270                   (X_M62.5)  -57.0270                       

(X_M62.8)  -55.1770                   (X_M63.5)    5.9940                       

(X_M63.8)    6.0000                   (X_M64.5)    5.9940                       

(X_M64.8)  -55.0270                   (X_M11.11)    5.9940                      

(X_M11.76)  -55.3900                  (X_M11.86)  -54.8480                      

(X_M12.11)-603.4E-15                  (X_M12.76)   -4.2197                      

(X_M12.86)  -54.8480                  (X_M13.76)    5.9940                      

(X_M13.87)    7.9940                  (X_M13.95)    5.9940                      

(X_M13.97)    6.0000                  (X_M13.98)    6.0000                      

(X_M13.99)    5.9940                  (X_M14.76)    5.9940                      

(X_M14.87)    2.0000                  (X_M14.95)    0.0000                      

(X_M14.97)    6.0000                  (X_M14.98)    6.0000                      

(X_M14.99) 473.2E-12                  (X_M21.11)    5.9940                      

(X_M21.76)   -4.2197                  (X_M21.86)  -54.8480                      

(X_M22.11)  -56.3640                  (X_M22.76)  -55.3900                      

(X_M22.86)  -54.8480                  (X_M23.76)    5.9940                      

(X_M23.87)    7.9940                  (X_M23.95)    5.9940                      

(X_M23.97)    6.0000                  (X_M23.98)    6.0000                      

(X_M23.99)    5.9940                  (X_M24.76)    5.9940                      

(X_M24.87)  -54.3640                  (X_M24.95)  -56.3640                      

(X_M24.97)    6.0000                  (X_M24.98)    6.0000                      

(X_M24.99)  -56.3640                  (X_M31.11)    5.9987                      

(X_M31.76)   -8.1285                  (X_M31.86)   -7.5413                      

(X_M32.11)  -56.3640                  (X_M32.76)   -6.4964                      

(X_M32.86)   -7.5413                  (X_M33.76)    5.9987                      

(X_M33.87)    7.9987                  (X_M33.95)    5.9987                      

(X_M33.97)    6.0000                  (X_M33.98)    6.0000                      

(X_M33.99)    5.9987                  (X_M34.76)    5.9987                      

(X_M34.87)  -54.3640                  (X_M34.95)  -56.3640                      

(X_M34.97)    6.0000                  (X_M34.98)    6.0000                      

(X_M34.99)  -56.3640                  (X_M41.11)    5.9874                      

(X_M41.76)  -58.3250                  (X_M41.86) -108.9100                      

(X_M42.11)  -11.3790                  (X_M42.76)  -58.3110                      

(X_M42.86) -108.9100                  (X_M43.76)    5.9874                      

(X_M43.87)    7.9874                  (X_M43.95)    5.9874                      

(X_M43.97)    6.0000                  (X_M43.98)    6.0000                      

(X_M43.99)    5.9874                  (X_M44.76)    5.9874                      

(X_M44.87)   -9.3789                  (X_M44.95)  -11.3790                      

(X_M44.97)    6.0000                  (X_M44.98)    6.0000                      

(X_M44.99)  -11.3790                  (X_M51.11)    5.9980                      

(X_M51.76)-1.073E-09                  (X_M51.86)  -15.2400                      

(X_M52.11)  -57.0270                  (X_M52.76)  -14.6250                      

(X_M52.86)  -15.2400                  (X_M53.76)    5.9980                      

(X_M53.87)    7.9980                  (X_M53.95)    5.9980                      

(X_M53.97)    6.0000                  (X_M53.98)    6.0000                      

(X_M53.99)    5.9980                  (X_M54.76)    5.9980                      

(X_M54.87)  -55.0270                  (X_M54.95)  -57.0270                      

(X_M54.97)    6.0000                  (X_M54.98)    6.0000                      

(X_M54.99)  -57.0270                  (X_M61.11)    5.9940                      

(X_M61.76)   -4.5447                  (X_M61.86)  -55.1770                      

(X_M62.11)  -57.0270                  (X_M62.76)  -55.7280                      

(X_M62.86)  -55.1770                  (X_M63.76)    5.9940                      

(X_M63.87)    7.9940                  (X_M63.95)    5.9940                      

(X_M63.97)    6.0000                  (X_M63.98)    6.0000                      

(X_M63.99)    5.9940                  (X_M64.76)    5.9940                      

(X_M64.87)  -55.0270                  (X_M64.95)  -57.0270                      

(X_M64.97)    6.0000                  (X_M64.98)    6.0000                      

(X_M64.99)  -57.0270                  




    VOLTAGE SOURCE CURRENTS
    NAME         CURRENT

    V_V3        -1.479E-10
    V_V7        -2.600E+00
    V_V4        -2.603E-10
    V_V6        -2.445E-10
    V_V1        -1.298E-10
    V_V2        -2.429E-10
    V_V5        -1.643E-10
    X_M13.VGC   -2.004E-12
    X_M54.VGC    1.221E-10
    X_M23.VGC   -2.004E-12
    X_M14.VGC    8.020E-12
    X_M34.VGC    1.209E-10
    X_M53.VGC   -2.008E-12
    X_M33.VGC   -2.009E-12
    X_M44.VGC    3.075E-11
    X_M64.VGC    1.221E-10
    X_M24.VGC    1.207E-10
    X_M43.VGC   -1.997E-12
    X_M63.VGC   -2.004E-12

    TOTAL POWER DISSIPATION   6.11E-09  WATTS



          JOB CONCLUDED

          TOTAL JOB TIME             .52
