
**** 06/24/18 23:00:11 ********* PSpice 9.2 (Mar 2000) ******** ID# 0 ********

 ** Profile: "SCHEMATIC1-sm"  [ E:\AZ\Gm_c filter\4\gmc-schematic1-sm.sim ] 


 ****     CIRCUIT DESCRIPTION


******************************************************************************




** Creating circuit file "gmc-schematic1-sm.sim.cir" 
** WARNING: THIS AUTOMATICALLY GENERATED FILE MAY BE OVERWRITTEN BY SUBSEQUENT SIMULATIONS

*Libraries: 
* Local Libraries :
* From [PSPICE NETLIST] section of C:\Program Files\Orcad\PSpice\PSpice.ini file:
.lib "nom.lib" 

*Analysis directives: 
.AC DEC 100 1 300K
.PROBE V(*) I(*) W(*) D(*) NOISE(*) 
.INC ".\gmc-SCHEMATIC1.net" 



**** INCLUDING gmc-SCHEMATIC1.net ****
* source GMC
X_M73         N33465 N33465 N33461 BSS119/SIE
X_M13         N05735 N05735 N05995 BSS119/SIE
I_I1         N05885 0 DC 1000mAdc  
X_M32         IO2 0 N19632 BSS110/SIE
I_I6         N34033 0 DC 900mAdc  
X_M54         IO5 N20242 N20288 BSS119/SIE
X_M41         N19897 IO5 N19955 BSS110/SIE
X_M23         N18493 N18493 N18539 BSS119/SIE
X_M94         IO8 N31977 N31973 BSS119/SIE
X_M63         N33981 N33981 N33977 BSS119/SIE
X_M14         IO1 N05735 N05995 BSS119/SIE
V_V3         N19620 0 6Vdc
X_M84         IO8 N32976 N32972 BSS119/SIE
I_I4         N19955 0 DC 1000mAdc  
X_M21         N18493 IO1 N18551 BSS110/SIE
X_M74         IO7 N33465 N33461 BSS119/SIE
X_M92         IO8 IO8 N32029 BSS110/SIE
X_M34         IO2 N19574 N19620 BSS119/SIE
C_C1         0 IO2  42.5n  
X_M53         N20242 N20242 N20288 BSS119/SIE
C_C2         0 IO4  102n  
X_M42         IO4 IO2 N19955 BSS110/SIE
X_M64         IO5 N33981 N33977 BSS119/SIE
X_M82         IO8 IO7 N33028 BSS110/SIE
I_I2         N18551 0 DC 1000mAdc  
X_M72         IO7 IO5 N33517 BSS110/SIE
X_M91         N31977 0 N32029 BSS110/SIE
V_VSIG         IO1 0 DC 1Vdc AC 1Vac 
X_M51         N20242 0 N20300 BSS110/SIE
V_V4         N19943 0 6Vdc
X_M11         N05735 IO2 N05885 BSS110/SIE
X_M33         N19574 N19574 N19620 BSS119/SIE
X_M22         IO2 IO2 N18551 BSS110/SIE
X_M62         IO5 0 N34033 BSS110/SIE
V_V9         N31973 0 6Vdc
X_M81         N32976 0 N33028 BSS110/SIE
X_M71         N33465 IO8 N33517 BSS110/SIE
V_V1         N05995 0 6Vdc
X_M44         IO4 N19897 N19943 BSS119/SIE
X_M12         IO1 IO1 N05885 BSS110/SIE
I_I5         N20300 0 DC 1000mAdc  
C_C4         0 IO7  42.5n  
V_V2         N18539 0 6Vdc
V_V8         N32972 0 6Vdc
I_I9         N32029 0 DC 1000mAdc  
X_M31         N19574 IO4 N19632 BSS110/SIE
V_V7         N33461 0 6Vdc
X_M61         N33981 IO7 N34033 BSS110/SIE
X_M93         N31977 N31977 N31973 BSS119/SIE
C_C3         0 IO5  102n  
X_M24         IO2 N18493 N18539 BSS119/SIE
X_M52         IO5 IO4 N20300 BSS110/SIE
I_I8         N33028 0 DC 1000mAdc  
V_V6         N33977 0 6Vdc
X_M43         N19897 N19897 N19943 BSS119/SIE
I_I3         N19632 0 DC 900mAdc  
I_I7         N33517 0 DC 1000mAdc  
X_M83         N32976 N32976 N32972 BSS119/SIE
V_V5         N20288 0 6Vdc

**** RESUMING gmc-schematic1-sm.sim.cir ****
.END

**** 06/24/18 23:00:11 ********* PSpice 9.2 (Mar 2000) ******** ID# 0 ********

 ** Profile: "SCHEMATIC1-sm"  [ E:\AZ\Gm_c filter\4\gmc-schematic1-sm.sim ] 


 ****     Diode MODEL PARAMETERS


******************************************************************************




               X_M73.DREV      X_M73.DCGD      X_M13.DREV      X_M13.DCGD      
          IS  300.000000E-12   10.000000E-15  300.000000E-12   10.000000E-15 
          BV  100                             100                            
          RS     .02                             .02                         
          TT   30.000000E-09                   30.000000E-09                 
         CJO   25.000000E-12   22.400000E-12   25.000000E-12   22.400000E-12 
          VJ                    1.082                           1.082        
           M                     .688                            .688        


               X_M32.DREV      X_M32.DCGD      X_M54.DREV      X_M54.DCGD      
          IS  300.000000E-12   10.000000E-15  300.000000E-12   10.000000E-15 
          BV   50                             100                            
          RS     .02                             .02                         
          TT   60.000000E-09                   30.000000E-09                 
         CJO   35.000000E-12  183.000000E-12   25.000000E-12   22.400000E-12 
          VJ                    1.097                           1.082        
           M                     .439                            .688        


               X_M41.DREV      X_M41.DCGD      X_M23.DREV      X_M23.DCGD      
          IS  300.000000E-12   10.000000E-15  300.000000E-12   10.000000E-15 
          BV   50                             100                            
          RS     .02                             .02                         
          TT   60.000000E-09                   30.000000E-09                 
         CJO   35.000000E-12  183.000000E-12   25.000000E-12   22.400000E-12 
          VJ                    1.097                           1.082        
           M                     .439                            .688        


               X_M94.DREV      X_M94.DCGD      X_M63.DREV      X_M63.DCGD      
          IS  300.000000E-12   10.000000E-15  300.000000E-12   10.000000E-15 
          BV  100                             100                            
          RS     .02                             .02                         
          TT   30.000000E-09                   30.000000E-09                 
         CJO   25.000000E-12   22.400000E-12   25.000000E-12   22.400000E-12 
          VJ                    1.082                           1.082        
           M                     .688                            .688        


               X_M14.DREV      X_M14.DCGD      X_M84.DREV      X_M84.DCGD      
          IS  300.000000E-12   10.000000E-15  300.000000E-12   10.000000E-15 
          BV  100                             100                            
          RS     .02                             .02                         
          TT   30.000000E-09                   30.000000E-09                 
         CJO   25.000000E-12   22.400000E-12   25.000000E-12   22.400000E-12 
          VJ                    1.082                           1.082        
           M                     .688                            .688        


               X_M21.DREV      X_M21.DCGD      X_M74.DREV      X_M74.DCGD      
          IS  300.000000E-12   10.000000E-15  300.000000E-12   10.000000E-15 
          BV   50                             100                            
          RS     .02                             .02                         
          TT   60.000000E-09                   30.000000E-09                 
         CJO   35.000000E-12  183.000000E-12   25.000000E-12   22.400000E-12 
          VJ                    1.097                           1.082        
           M                     .439                            .688        


               X_M92.DREV      X_M92.DCGD      X_M34.DREV      X_M34.DCGD      
          IS  300.000000E-12   10.000000E-15  300.000000E-12   10.000000E-15 
          BV   50                             100                            
          RS     .02                             .02                         
          TT   60.000000E-09                   30.000000E-09                 
         CJO   35.000000E-12  183.000000E-12   25.000000E-12   22.400000E-12 
          VJ                    1.097                           1.082        
           M                     .439                            .688        


               X_M53.DREV      X_M53.DCGD      X_M42.DREV      X_M42.DCGD      
          IS  300.000000E-12   10.000000E-15  300.000000E-12   10.000000E-15 
          BV  100                              50                            
          RS     .02                             .02                         
          TT   30.000000E-09                   60.000000E-09                 
         CJO   25.000000E-12   22.400000E-12   35.000000E-12  183.000000E-12 
          VJ                    1.082                           1.097        
           M                     .688                            .439        


               X_M64.DREV      X_M64.DCGD      X_M82.DREV      X_M82.DCGD      
          IS  300.000000E-12   10.000000E-15  300.000000E-12   10.000000E-15 
          BV  100                              50                            
          RS     .02                             .02                         
          TT   30.000000E-09                   60.000000E-09                 
         CJO   25.000000E-12   22.400000E-12   35.000000E-12  183.000000E-12 
          VJ                    1.082                           1.097        
           M                     .688                            .439        


               X_M72.DREV      X_M72.DCGD      X_M91.DREV      X_M91.DCGD      
          IS  300.000000E-12   10.000000E-15  300.000000E-12   10.000000E-15 
          BV   50                              50                            
          RS     .02                             .02                         
          TT   60.000000E-09                   60.000000E-09                 
         CJO   35.000000E-12  183.000000E-12   35.000000E-12  183.000000E-12 
          VJ                    1.097                           1.097        
           M                     .439                            .439        


               X_M51.DREV      X_M51.DCGD      X_M11.DREV      X_M11.DCGD      
          IS  300.000000E-12   10.000000E-15  300.000000E-12   10.000000E-15 
          BV   50                              50                            
          RS     .02                             .02                         
          TT   60.000000E-09                   60.000000E-09                 
         CJO   35.000000E-12  183.000000E-12   35.000000E-12  183.000000E-12 
          VJ                    1.097                           1.097        
           M                     .439                            .439        


               X_M33.DREV      X_M33.DCGD      X_M22.DREV      X_M22.DCGD      
          IS  300.000000E-12   10.000000E-15  300.000000E-12   10.000000E-15 
          BV  100                              50                            
          RS     .02                             .02                         
          TT   30.000000E-09                   60.000000E-09                 
         CJO   25.000000E-12   22.400000E-12   35.000000E-12  183.000000E-12 
          VJ                    1.082                           1.097        
           M                     .688                            .439        


               X_M62.DREV      X_M62.DCGD      X_M81.DREV      X_M81.DCGD      
          IS  300.000000E-12   10.000000E-15  300.000000E-12   10.000000E-15 
          BV   50                              50                            
          RS     .02                             .02                         
          TT   60.000000E-09                   60.000000E-09                 
         CJO   35.000000E-12  183.000000E-12   35.000000E-12  183.000000E-12 
          VJ                    1.097                           1.097        
           M                     .439                            .439        


               X_M71.DREV      X_M71.DCGD      X_M44.DREV      X_M44.DCGD      
          IS  300.000000E-12   10.000000E-15  300.000000E-12   10.000000E-15 
          BV   50                             100                            
          RS     .02                             .02                         
          TT   60.000000E-09                   30.000000E-09                 
         CJO   35.000000E-12  183.000000E-12   25.000000E-12   22.400000E-12 
          VJ                    1.097                           1.082        
           M                     .439                            .688        


               X_M12.DREV      X_M12.DCGD      X_M31.DREV      X_M31.DCGD      
          IS  300.000000E-12   10.000000E-15  300.000000E-12   10.000000E-15 
          BV   50                              50                            
          RS     .02                             .02                         
          TT   60.000000E-09                   60.000000E-09                 
         CJO   35.000000E-12  183.000000E-12   35.000000E-12  183.000000E-12 
          VJ                    1.097                           1.097        
           M                     .439                            .439        


               X_M61.DREV      X_M61.DCGD      X_M93.DREV      X_M93.DCGD      
          IS  300.000000E-12   10.000000E-15  300.000000E-12   10.000000E-15 
          BV   50                             100                            
          RS     .02                             .02                         
          TT   60.000000E-09                   30.000000E-09                 
         CJO   35.000000E-12  183.000000E-12   25.000000E-12   22.400000E-12 
          VJ                    1.097                           1.082        
           M                     .439                            .688        


               X_M24.DREV      X_M24.DCGD      X_M52.DREV      X_M52.DCGD      
          IS  300.000000E-12   10.000000E-15  300.000000E-12   10.000000E-15 
          BV  100                              50                            
          RS     .02                             .02                         
          TT   30.000000E-09                   60.000000E-09                 
         CJO   25.000000E-12   22.400000E-12   35.000000E-12  183.000000E-12 
          VJ                    1.082                           1.097        
           M                     .688                            .439        


               X_M43.DREV      X_M43.DCGD      X_M83.DREV      X_M83.DCGD      
          IS  300.000000E-12   10.000000E-15  300.000000E-12   10.000000E-15 
          BV  100                             100                            
          RS     .02                             .02                         
          TT   30.000000E-09                   30.000000E-09                 
         CJO   25.000000E-12   22.400000E-12   25.000000E-12   22.400000E-12 
          VJ                    1.082                           1.082        
           M                     .688                            .688        


**** 06/24/18 23:00:11 ********* PSpice 9.2 (Mar 2000) ******** ID# 0 ********

 ** Profile: "SCHEMATIC1-sm"  [ E:\AZ\Gm_c filter\4\gmc-schematic1-sm.sim ] 


 ****     MOSFET MODEL PARAMETERS


******************************************************************************




               X_M73.MBUZ      X_M73.MSW       X_M73.MVRD      X_M13.MBUZ      
               NMOS            NMOS            NMOS            NMOS            
       LEVEL    1               1               1               1            
           L  100.000000E-06  100.000000E-06  100.000000E-06  100.000000E-06 
           W  100.000000E-06  100.000000E-06  100.000000E-06  100.000000E-06 
         VTO    1.999           1.000000E-03   -4.859           1.999        
          KP     .134            .5              .073            .134        
       GAMMA    0               0               0               0            
         PHI     .6              .6              .6              .6          
      LAMBDA    0               0               0               0            
          IS   10.000000E-15   10.000000E-15   10.000000E-15   10.000000E-15 
          JS    0               0               0               0            
          PB     .8              .8              .8              .8          
        PBSW     .8              .8              .8              .8          
          CJ    0               0               0               0            
        CJSW    0               0               0               0            
        CGSO    0               0               0               0            
        CGDO    0               0               0               0            
        CGBO    0               0               0               0            
         TOX    0               0               0               0            
          XJ    0               0               0               0            
       UCRIT   10.000000E+03   10.000000E+03   10.000000E+03   10.000000E+03 
      DIOMOD    1               1               1               1            
         VFB    0               0               0               0            
        LETA    0               0               0               0            
        WETA    0               0               0               0            
          U0    0               0               0               0            
        TEMP    0               0               0               0            
         VDD    0               0               0               0            
       XPART    0               0               0               0            


               X_M13.MSW       X_M13.MVRD      X_M32.MBUZ      X_M32.MSW       
               NMOS            NMOS            PMOS            PMOS            
       LEVEL    1               1               1               1            
           L  100.000000E-06  100.000000E-06  100.000000E-06  100.000000E-06 
           W  100.000000E-06  100.000000E-06  100.000000E-06  100.000000E-06 
         VTO    1.000000E-03   -4.859          -1.462          -1.000000E-03 
          KP     .5              .073            .04            5            
       GAMMA    0               0               0               0            
         PHI     .6              .6              .6              .6          
      LAMBDA    0               0               0               0            
          IS   10.000000E-15   10.000000E-15   10.000000E-15   10.000000E-15 
          JS    0               0               0               0            
          PB     .8              .8              .8              .8          
        PBSW     .8              .8              .8              .8          
          CJ    0               0               0               0            
        CJSW    0               0               0               0            
        CGSO    0               0               0               0            
        CGDO    0               0               0               0            
        CGBO    0               0               0               0            
         TOX    0               0               0               0            
          XJ    0               0               0               0            
       UCRIT   10.000000E+03   10.000000E+03   10.000000E+03   10.000000E+03 
      DIOMOD    1               1               1               1            
         VFB    0               0               0               0            
        LETA    0               0               0               0            
        WETA    0               0               0               0            
          U0    0               0               0               0            
        TEMP    0               0               0               0            
         VDD    0               0               0               0            
       XPART    0               0               0               0            


               X_M54.MBUZ      X_M54.MSW       X_M54.MVRD      X_M41.MBUZ      
               NMOS            NMOS            NMOS            PMOS            
       LEVEL    1               1               1               1            
           L  100.000000E-06  100.000000E-06  100.000000E-06  100.000000E-06 
           W  100.000000E-06  100.000000E-06  100.000000E-06  100.000000E-06 
         VTO    1.999           1.000000E-03   -4.859          -1.462        
          KP     .134            .5              .073            .04         
       GAMMA    0               0               0               0            
         PHI     .6              .6              .6              .6          
      LAMBDA    0               0               0               0            
          IS   10.000000E-15   10.000000E-15   10.000000E-15   10.000000E-15 
          JS    0               0               0               0            
          PB     .8              .8              .8              .8          
        PBSW     .8              .8              .8              .8          
          CJ    0               0               0               0            
        CJSW    0               0               0               0            
        CGSO    0               0               0               0            
        CGDO    0               0               0               0            
        CGBO    0               0               0               0            
         TOX    0               0               0               0            
          XJ    0               0               0               0            
       UCRIT   10.000000E+03   10.000000E+03   10.000000E+03   10.000000E+03 
      DIOMOD    1               1               1               1            
         VFB    0               0               0               0            
        LETA    0               0               0               0            
        WETA    0               0               0               0            
          U0    0               0               0               0            
        TEMP    0               0               0               0            
         VDD    0               0               0               0            
       XPART    0               0               0               0            


               X_M41.MSW       X_M23.MBUZ      X_M23.MSW       X_M23.MVRD      
               PMOS            NMOS            NMOS            NMOS            
       LEVEL    1               1               1               1            
           L  100.000000E-06  100.000000E-06  100.000000E-06  100.000000E-06 
           W  100.000000E-06  100.000000E-06  100.000000E-06  100.000000E-06 
         VTO   -1.000000E-03    1.999           1.000000E-03   -4.859        
          KP    5                .134            .5              .073        
       GAMMA    0               0               0               0            
         PHI     .6              .6              .6              .6          
      LAMBDA    0               0               0               0            
          IS   10.000000E-15   10.000000E-15   10.000000E-15   10.000000E-15 
          JS    0               0               0               0            
          PB     .8              .8              .8              .8          
        PBSW     .8              .8              .8              .8          
          CJ    0               0               0               0            
        CJSW    0               0               0               0            
        CGSO    0               0               0               0            
        CGDO    0               0               0               0            
        CGBO    0               0               0               0            
         TOX    0               0               0               0            
          XJ    0               0               0               0            
       UCRIT   10.000000E+03   10.000000E+03   10.000000E+03   10.000000E+03 
      DIOMOD    1               1               1               1            
         VFB    0               0               0               0            
        LETA    0               0               0               0            
        WETA    0               0               0               0            
          U0    0               0               0               0            
        TEMP    0               0               0               0            
         VDD    0               0               0               0            
       XPART    0               0               0               0            


               X_M94.MBUZ      X_M94.MSW       X_M94.MVRD      X_M63.MBUZ      
               NMOS            NMOS            NMOS            NMOS            
       LEVEL    1               1               1               1            
           L  100.000000E-06  100.000000E-06  100.000000E-06  100.000000E-06 
           W  100.000000E-06  100.000000E-06  100.000000E-06  100.000000E-06 
         VTO    1.999           1.000000E-03   -4.859           1.999        
          KP     .134            .5              .073            .134        
       GAMMA    0               0               0               0            
         PHI     .6              .6              .6              .6          
      LAMBDA    0               0               0               0            
          IS   10.000000E-15   10.000000E-15   10.000000E-15   10.000000E-15 
          JS    0               0               0               0            
          PB     .8              .8              .8              .8          
        PBSW     .8              .8              .8              .8          
          CJ    0               0               0               0            
        CJSW    0               0               0               0            
        CGSO    0               0               0               0            
        CGDO    0               0               0               0            
        CGBO    0               0               0               0            
         TOX    0               0               0               0            
          XJ    0               0               0               0            
       UCRIT   10.000000E+03   10.000000E+03   10.000000E+03   10.000000E+03 
      DIOMOD    1               1               1               1            
         VFB    0               0               0               0            
        LETA    0               0               0               0            
        WETA    0               0               0               0            
          U0    0               0               0               0            
        TEMP    0               0               0               0            
         VDD    0               0               0               0            
       XPART    0               0               0               0            


               X_M63.MSW       X_M63.MVRD      X_M14.MBUZ      X_M14.MSW       
               NMOS            NMOS            NMOS            NMOS            
       LEVEL    1               1               1               1            
           L  100.000000E-06  100.000000E-06  100.000000E-06  100.000000E-06 
           W  100.000000E-06  100.000000E-06  100.000000E-06  100.000000E-06 
         VTO    1.000000E-03   -4.859           1.999           1.000000E-03 
          KP     .5              .073            .134            .5          
       GAMMA    0               0               0               0            
         PHI     .6              .6              .6              .6          
      LAMBDA    0               0               0               0            
          IS   10.000000E-15   10.000000E-15   10.000000E-15   10.000000E-15 
          JS    0               0               0               0            
          PB     .8              .8              .8              .8          
        PBSW     .8              .8              .8              .8          
          CJ    0               0               0               0            
        CJSW    0               0               0               0            
        CGSO    0               0               0               0            
        CGDO    0               0               0               0            
        CGBO    0               0               0               0            
         TOX    0               0               0               0            
          XJ    0               0               0               0            
       UCRIT   10.000000E+03   10.000000E+03   10.000000E+03   10.000000E+03 
      DIOMOD    1               1               1               1            
         VFB    0               0               0               0            
        LETA    0               0               0               0            
        WETA    0               0               0               0            
          U0    0               0               0               0            
        TEMP    0               0               0               0            
         VDD    0               0               0               0            
       XPART    0               0               0               0            


               X_M14.MVRD      X_M84.MBUZ      X_M84.MSW       X_M84.MVRD      
               NMOS            NMOS            NMOS            NMOS            
       LEVEL    1               1               1               1            
           L  100.000000E-06  100.000000E-06  100.000000E-06  100.000000E-06 
           W  100.000000E-06  100.000000E-06  100.000000E-06  100.000000E-06 
         VTO   -4.859           1.999           1.000000E-03   -4.859        
          KP     .073            .134            .5              .073        
       GAMMA    0               0               0               0            
         PHI     .6              .6              .6              .6          
      LAMBDA    0               0               0               0            
          IS   10.000000E-15   10.000000E-15   10.000000E-15   10.000000E-15 
          JS    0               0               0               0            
          PB     .8              .8              .8              .8          
        PBSW     .8              .8              .8              .8          
          CJ    0               0               0               0            
        CJSW    0               0               0               0            
        CGSO    0               0               0               0            
        CGDO    0               0               0               0            
        CGBO    0               0               0               0            
         TOX    0               0               0               0            
          XJ    0               0               0               0            
       UCRIT   10.000000E+03   10.000000E+03   10.000000E+03   10.000000E+03 
      DIOMOD    1               1               1               1            
         VFB    0               0               0               0            
        LETA    0               0               0               0            
        WETA    0               0               0               0            
          U0    0               0               0               0            
        TEMP    0               0               0               0            
         VDD    0               0               0               0            
       XPART    0               0               0               0            


               X_M21.MBUZ      X_M21.MSW       X_M74.MBUZ      X_M74.MSW       
               PMOS            PMOS            NMOS            NMOS            
       LEVEL    1               1               1               1            
           L  100.000000E-06  100.000000E-06  100.000000E-06  100.000000E-06 
           W  100.000000E-06  100.000000E-06  100.000000E-06  100.000000E-06 
         VTO   -1.462          -1.000000E-03    1.999           1.000000E-03 
          KP     .04            5                .134            .5          
       GAMMA    0               0               0               0            
         PHI     .6              .6              .6              .6          
      LAMBDA    0               0               0               0            
          IS   10.000000E-15   10.000000E-15   10.000000E-15   10.000000E-15 
          JS    0               0               0               0            
          PB     .8              .8              .8              .8          
        PBSW     .8              .8              .8              .8          
          CJ    0               0               0               0            
        CJSW    0               0               0               0            
        CGSO    0               0               0               0            
        CGDO    0               0               0               0            
        CGBO    0               0               0               0            
         TOX    0               0               0               0            
          XJ    0               0               0               0            
       UCRIT   10.000000E+03   10.000000E+03   10.000000E+03   10.000000E+03 
      DIOMOD    1               1               1               1            
         VFB    0               0               0               0            
        LETA    0               0               0               0            
        WETA    0               0               0               0            
          U0    0               0               0               0            
        TEMP    0               0               0               0            
         VDD    0               0               0               0            
       XPART    0               0               0               0            


               X_M74.MVRD      X_M92.MBUZ      X_M92.MSW       X_M34.MBUZ      
               NMOS            PMOS            PMOS            NMOS            
       LEVEL    1               1               1               1            
           L  100.000000E-06  100.000000E-06  100.000000E-06  100.000000E-06 
           W  100.000000E-06  100.000000E-06  100.000000E-06  100.000000E-06 
         VTO   -4.859          -1.462          -1.000000E-03    1.999        
          KP     .073            .04            5                .134        
       GAMMA    0               0               0               0            
         PHI     .6              .6              .6              .6          
      LAMBDA    0               0               0               0            
          IS   10.000000E-15   10.000000E-15   10.000000E-15   10.000000E-15 
          JS    0               0               0               0            
          PB     .8              .8              .8              .8          
        PBSW     .8              .8              .8              .8          
          CJ    0               0               0               0            
        CJSW    0               0               0               0            
        CGSO    0               0               0               0            
        CGDO    0               0               0               0            
        CGBO    0               0               0               0            
         TOX    0               0               0               0            
          XJ    0               0               0               0            
       UCRIT   10.000000E+03   10.000000E+03   10.000000E+03   10.000000E+03 
      DIOMOD    1               1               1               1            
         VFB    0               0               0               0            
        LETA    0               0               0               0            
        WETA    0               0               0               0            
          U0    0               0               0               0            
        TEMP    0               0               0               0            
         VDD    0               0               0               0            
       XPART    0               0               0               0            


               X_M34.MSW       X_M34.MVRD      X_M53.MBUZ      X_M53.MSW       
               NMOS            NMOS            NMOS            NMOS            
       LEVEL    1               1               1               1            
           L  100.000000E-06  100.000000E-06  100.000000E-06  100.000000E-06 
           W  100.000000E-06  100.000000E-06  100.000000E-06  100.000000E-06 
         VTO    1.000000E-03   -4.859           1.999           1.000000E-03 
          KP     .5              .073            .134            .5          
       GAMMA    0               0               0               0            
         PHI     .6              .6              .6              .6          
      LAMBDA    0               0               0               0            
          IS   10.000000E-15   10.000000E-15   10.000000E-15   10.000000E-15 
          JS    0               0               0               0            
          PB     .8              .8              .8              .8          
        PBSW     .8              .8              .8              .8          
          CJ    0               0               0               0            
        CJSW    0               0               0               0            
        CGSO    0               0               0               0            
        CGDO    0               0               0               0            
        CGBO    0               0               0               0            
         TOX    0               0               0               0            
          XJ    0               0               0               0            
       UCRIT   10.000000E+03   10.000000E+03   10.000000E+03   10.000000E+03 
      DIOMOD    1               1               1               1            
         VFB    0               0               0               0            
        LETA    0               0               0               0            
        WETA    0               0               0               0            
          U0    0               0               0               0            
        TEMP    0               0               0               0            
         VDD    0               0               0               0            
       XPART    0               0               0               0            


               X_M53.MVRD      X_M42.MBUZ      X_M42.MSW       X_M64.MBUZ      
               NMOS            PMOS            PMOS            NMOS            
       LEVEL    1               1               1               1            
           L  100.000000E-06  100.000000E-06  100.000000E-06  100.000000E-06 
           W  100.000000E-06  100.000000E-06  100.000000E-06  100.000000E-06 
         VTO   -4.859          -1.462          -1.000000E-03    1.999        
          KP     .073            .04            5                .134        
       GAMMA    0               0               0               0            
         PHI     .6              .6              .6              .6          
      LAMBDA    0               0               0               0            
          IS   10.000000E-15   10.000000E-15   10.000000E-15   10.000000E-15 
          JS    0               0               0               0            
          PB     .8              .8              .8              .8          
        PBSW     .8              .8              .8              .8          
          CJ    0               0               0               0            
        CJSW    0               0               0               0            
        CGSO    0               0               0               0            
        CGDO    0               0               0               0            
        CGBO    0               0               0               0            
         TOX    0               0               0               0            
          XJ    0               0               0               0            
       UCRIT   10.000000E+03   10.000000E+03   10.000000E+03   10.000000E+03 
      DIOMOD    1               1               1               1            
         VFB    0               0               0               0            
        LETA    0               0               0               0            
        WETA    0               0               0               0            
          U0    0               0               0               0            
        TEMP    0               0               0               0            
         VDD    0               0               0               0            
       XPART    0               0               0               0            


               X_M64.MSW       X_M64.MVRD      X_M82.MBUZ      X_M82.MSW       
               NMOS            NMOS            PMOS            PMOS            
       LEVEL    1               1               1               1            
           L  100.000000E-06  100.000000E-06  100.000000E-06  100.000000E-06 
           W  100.000000E-06  100.000000E-06  100.000000E-06  100.000000E-06 
         VTO    1.000000E-03   -4.859          -1.462          -1.000000E-03 
          KP     .5              .073            .04            5            
       GAMMA    0               0               0               0            
         PHI     .6              .6              .6              .6          
      LAMBDA    0               0               0               0            
          IS   10.000000E-15   10.000000E-15   10.000000E-15   10.000000E-15 
          JS    0               0               0               0            
          PB     .8              .8              .8              .8          
        PBSW     .8              .8              .8              .8          
          CJ    0               0               0               0            
        CJSW    0               0               0               0            
        CGSO    0               0               0               0            
        CGDO    0               0               0               0            
        CGBO    0               0               0               0            
         TOX    0               0               0               0            
          XJ    0               0               0               0            
       UCRIT   10.000000E+03   10.000000E+03   10.000000E+03   10.000000E+03 
      DIOMOD    1               1               1               1            
         VFB    0               0               0               0            
        LETA    0               0               0               0            
        WETA    0               0               0               0            
          U0    0               0               0               0            
        TEMP    0               0               0               0            
         VDD    0               0               0               0            
       XPART    0               0               0               0            


               X_M72.MBUZ      X_M72.MSW       X_M91.MBUZ      X_M91.MSW       
               PMOS            PMOS            PMOS            PMOS            
       LEVEL    1               1               1               1            
           L  100.000000E-06  100.000000E-06  100.000000E-06  100.000000E-06 
           W  100.000000E-06  100.000000E-06  100.000000E-06  100.000000E-06 
         VTO   -1.462          -1.000000E-03   -1.462          -1.000000E-03 
          KP     .04            5                .04            5            
       GAMMA    0               0               0               0            
         PHI     .6              .6              .6              .6          
      LAMBDA    0               0               0               0            
          IS   10.000000E-15   10.000000E-15   10.000000E-15   10.000000E-15 
          JS    0               0               0               0            
          PB     .8              .8              .8              .8          
        PBSW     .8              .8              .8              .8          
          CJ    0               0               0               0            
        CJSW    0               0               0               0            
        CGSO    0               0               0               0            
        CGDO    0               0               0               0            
        CGBO    0               0               0               0            
         TOX    0               0               0               0            
          XJ    0               0               0               0            
       UCRIT   10.000000E+03   10.000000E+03   10.000000E+03   10.000000E+03 
      DIOMOD    1               1               1               1            
         VFB    0               0               0               0            
        LETA    0               0               0               0            
        WETA    0               0               0               0            
          U0    0               0               0               0            
        TEMP    0               0               0               0            
         VDD    0               0               0               0            
       XPART    0               0               0               0            


               X_M51.MBUZ      X_M51.MSW       X_M11.MBUZ      X_M11.MSW       
               PMOS            PMOS            PMOS            PMOS            
       LEVEL    1               1               1               1            
           L  100.000000E-06  100.000000E-06  100.000000E-06  100.000000E-06 
           W  100.000000E-06  100.000000E-06  100.000000E-06  100.000000E-06 
         VTO   -1.462          -1.000000E-03   -1.462          -1.000000E-03 
          KP     .04            5                .04            5            
       GAMMA    0               0               0               0            
         PHI     .6              .6              .6              .6          
      LAMBDA    0               0               0               0            
          IS   10.000000E-15   10.000000E-15   10.000000E-15   10.000000E-15 
          JS    0               0               0               0            
          PB     .8              .8              .8              .8          
        PBSW     .8              .8              .8              .8          
          CJ    0               0               0               0            
        CJSW    0               0               0               0            
        CGSO    0               0               0               0            
        CGDO    0               0               0               0            
        CGBO    0               0               0               0            
         TOX    0               0               0               0            
          XJ    0               0               0               0            
       UCRIT   10.000000E+03   10.000000E+03   10.000000E+03   10.000000E+03 
      DIOMOD    1               1               1               1            
         VFB    0               0               0               0            
        LETA    0               0               0               0            
        WETA    0               0               0               0            
          U0    0               0               0               0            
        TEMP    0               0               0               0            
         VDD    0               0               0               0            
       XPART    0               0               0               0            


               X_M33.MBUZ      X_M33.MSW       X_M33.MVRD      X_M22.MBUZ      
               NMOS            NMOS            NMOS            PMOS            
       LEVEL    1               1               1               1            
           L  100.000000E-06  100.000000E-06  100.000000E-06  100.000000E-06 
           W  100.000000E-06  100.000000E-06  100.000000E-06  100.000000E-06 
         VTO    1.999           1.000000E-03   -4.859          -1.462        
          KP     .134            .5              .073            .04         
       GAMMA    0               0               0               0            
         PHI     .6              .6              .6              .6          
      LAMBDA    0               0               0               0            
          IS   10.000000E-15   10.000000E-15   10.000000E-15   10.000000E-15 
          JS    0               0               0               0            
          PB     .8              .8              .8              .8          
        PBSW     .8              .8              .8              .8          
          CJ    0               0               0               0            
        CJSW    0               0               0               0            
        CGSO    0               0               0               0            
        CGDO    0               0               0               0            
        CGBO    0               0               0               0            
         TOX    0               0               0               0            
          XJ    0               0               0               0            
       UCRIT   10.000000E+03   10.000000E+03   10.000000E+03   10.000000E+03 
      DIOMOD    1               1               1               1            
         VFB    0               0               0               0            
        LETA    0               0               0               0            
        WETA    0               0               0               0            
          U0    0               0               0               0            
        TEMP    0               0               0               0            
         VDD    0               0               0               0            
       XPART    0               0               0               0            


               X_M22.MSW       X_M62.MBUZ      X_M62.MSW       X_M81.MBUZ      
               PMOS            PMOS            PMOS            PMOS            
       LEVEL    1               1               1               1            
           L  100.000000E-06  100.000000E-06  100.000000E-06  100.000000E-06 
           W  100.000000E-06  100.000000E-06  100.000000E-06  100.000000E-06 
         VTO   -1.000000E-03   -1.462          -1.000000E-03   -1.462        
          KP    5                .04            5                .04         
       GAMMA    0               0               0               0            
         PHI     .6              .6              .6              .6          
      LAMBDA    0               0               0               0            
          IS   10.000000E-15   10.000000E-15   10.000000E-15   10.000000E-15 
          JS    0               0               0               0            
          PB     .8              .8              .8              .8          
        PBSW     .8              .8              .8              .8          
          CJ    0               0               0               0            
        CJSW    0               0               0               0            
        CGSO    0               0               0               0            
        CGDO    0               0               0               0            
        CGBO    0               0               0               0            
         TOX    0               0               0               0            
          XJ    0               0               0               0            
       UCRIT   10.000000E+03   10.000000E+03   10.000000E+03   10.000000E+03 
      DIOMOD    1               1               1               1            
         VFB    0               0               0               0            
        LETA    0               0               0               0            
        WETA    0               0               0               0            
          U0    0               0               0               0            
        TEMP    0               0               0               0            
         VDD    0               0               0               0            
       XPART    0               0               0               0            


               X_M81.MSW       X_M71.MBUZ      X_M71.MSW       X_M44.MBUZ      
               PMOS            PMOS            PMOS            NMOS            
       LEVEL    1               1               1               1            
           L  100.000000E-06  100.000000E-06  100.000000E-06  100.000000E-06 
           W  100.000000E-06  100.000000E-06  100.000000E-06  100.000000E-06 
         VTO   -1.000000E-03   -1.462          -1.000000E-03    1.999        
          KP    5                .04            5                .134        
       GAMMA    0               0               0               0            
         PHI     .6              .6              .6              .6          
      LAMBDA    0               0               0               0            
          IS   10.000000E-15   10.000000E-15   10.000000E-15   10.000000E-15 
          JS    0               0               0               0            
          PB     .8              .8              .8              .8          
        PBSW     .8              .8              .8              .8          
          CJ    0               0               0               0            
        CJSW    0               0               0               0            
        CGSO    0               0               0               0            
        CGDO    0               0               0               0            
        CGBO    0               0               0               0            
         TOX    0               0               0               0            
          XJ    0               0               0               0            
       UCRIT   10.000000E+03   10.000000E+03   10.000000E+03   10.000000E+03 
      DIOMOD    1               1               1               1            
         VFB    0               0               0               0            
        LETA    0               0               0               0            
        WETA    0               0               0               0            
          U0    0               0               0               0            
        TEMP    0               0               0               0            
         VDD    0               0               0               0            
       XPART    0               0               0               0            


               X_M44.MSW       X_M44.MVRD      X_M12.MBUZ      X_M12.MSW       
               NMOS            NMOS            PMOS            PMOS            
       LEVEL    1               1               1               1            
           L  100.000000E-06  100.000000E-06  100.000000E-06  100.000000E-06 
           W  100.000000E-06  100.000000E-06  100.000000E-06  100.000000E-06 
         VTO    1.000000E-03   -4.859          -1.462          -1.000000E-03 
          KP     .5              .073            .04            5            
       GAMMA    0               0               0               0            
         PHI     .6              .6              .6              .6          
      LAMBDA    0               0               0               0            
          IS   10.000000E-15   10.000000E-15   10.000000E-15   10.000000E-15 
          JS    0               0               0               0            
          PB     .8              .8              .8              .8          
        PBSW     .8              .8              .8              .8          
          CJ    0               0               0               0            
        CJSW    0               0               0               0            
        CGSO    0               0               0               0            
        CGDO    0               0               0               0            
        CGBO    0               0               0               0            
         TOX    0               0               0               0            
          XJ    0               0               0               0            
       UCRIT   10.000000E+03   10.000000E+03   10.000000E+03   10.000000E+03 
      DIOMOD    1               1               1               1            
         VFB    0               0               0               0            
        LETA    0               0               0               0            
        WETA    0               0               0               0            
          U0    0               0               0               0            
        TEMP    0               0               0               0            
         VDD    0               0               0               0            
       XPART    0               0               0               0            


               X_M31.MBUZ      X_M31.MSW       X_M61.MBUZ      X_M61.MSW       
               PMOS            PMOS            PMOS            PMOS            
       LEVEL    1               1               1               1            
           L  100.000000E-06  100.000000E-06  100.000000E-06  100.000000E-06 
           W  100.000000E-06  100.000000E-06  100.000000E-06  100.000000E-06 
         VTO   -1.462          -1.000000E-03   -1.462          -1.000000E-03 
          KP     .04            5                .04            5            
       GAMMA    0               0               0               0            
         PHI     .6              .6              .6              .6          
      LAMBDA    0               0               0               0            
          IS   10.000000E-15   10.000000E-15   10.000000E-15   10.000000E-15 
          JS    0               0               0               0            
          PB     .8              .8              .8              .8          
        PBSW     .8              .8              .8              .8          
          CJ    0               0               0               0            
        CJSW    0               0               0               0            
        CGSO    0               0               0               0            
        CGDO    0               0               0               0            
        CGBO    0               0               0               0            
         TOX    0               0               0               0            
          XJ    0               0               0               0            
       UCRIT   10.000000E+03   10.000000E+03   10.000000E+03   10.000000E+03 
      DIOMOD    1               1               1               1            
         VFB    0               0               0               0            
        LETA    0               0               0               0            
        WETA    0               0               0               0            
          U0    0               0               0               0            
        TEMP    0               0               0               0            
         VDD    0               0               0               0            
       XPART    0               0               0               0            


               X_M93.MBUZ      X_M93.MSW       X_M93.MVRD      X_M24.MBUZ      
               NMOS            NMOS            NMOS            NMOS            
       LEVEL    1               1               1               1            
           L  100.000000E-06  100.000000E-06  100.000000E-06  100.000000E-06 
           W  100.000000E-06  100.000000E-06  100.000000E-06  100.000000E-06 
         VTO    1.999           1.000000E-03   -4.859           1.999        
          KP     .134            .5              .073            .134        
       GAMMA    0               0               0               0            
         PHI     .6              .6              .6              .6          
      LAMBDA    0               0               0               0            
          IS   10.000000E-15   10.000000E-15   10.000000E-15   10.000000E-15 
          JS    0               0               0               0            
          PB     .8              .8              .8              .8          
        PBSW     .8              .8              .8              .8          
          CJ    0               0               0               0            
        CJSW    0               0               0               0            
        CGSO    0               0               0               0            
        CGDO    0               0               0               0            
        CGBO    0               0               0               0            
         TOX    0               0               0               0            
          XJ    0               0               0               0            
       UCRIT   10.000000E+03   10.000000E+03   10.000000E+03   10.000000E+03 
      DIOMOD    1               1               1               1            
         VFB    0               0               0               0            
        LETA    0               0               0               0            
        WETA    0               0               0               0            
          U0    0               0               0               0            
        TEMP    0               0               0               0            
         VDD    0               0               0               0            
       XPART    0               0               0               0            


               X_M24.MSW       X_M24.MVRD      X_M52.MBUZ      X_M52.MSW       
               NMOS            NMOS            PMOS            PMOS            
       LEVEL    1               1               1               1            
           L  100.000000E-06  100.000000E-06  100.000000E-06  100.000000E-06 
           W  100.000000E-06  100.000000E-06  100.000000E-06  100.000000E-06 
         VTO    1.000000E-03   -4.859          -1.462          -1.000000E-03 
          KP     .5              .073            .04            5            
       GAMMA    0               0               0               0            
         PHI     .6              .6              .6              .6          
      LAMBDA    0               0               0               0            
          IS   10.000000E-15   10.000000E-15   10.000000E-15   10.000000E-15 
          JS    0               0               0               0            
          PB     .8              .8              .8              .8          
        PBSW     .8              .8              .8              .8          
          CJ    0               0               0               0            
        CJSW    0               0               0               0            
        CGSO    0               0               0               0            
        CGDO    0               0               0               0            
        CGBO    0               0               0               0            
         TOX    0               0               0               0            
          XJ    0               0               0               0            
       UCRIT   10.000000E+03   10.000000E+03   10.000000E+03   10.000000E+03 
      DIOMOD    1               1               1               1            
         VFB    0               0               0               0            
        LETA    0               0               0               0            
        WETA    0               0               0               0            
          U0    0               0               0               0            
        TEMP    0               0               0               0            
         VDD    0               0               0               0            
       XPART    0               0               0               0            


               X_M43.MBUZ      X_M43.MSW       X_M43.MVRD      X_M83.MBUZ      
               NMOS            NMOS            NMOS            NMOS            
       LEVEL    1               1               1               1            
           L  100.000000E-06  100.000000E-06  100.000000E-06  100.000000E-06 
           W  100.000000E-06  100.000000E-06  100.000000E-06  100.000000E-06 
         VTO    1.999           1.000000E-03   -4.859           1.999        
          KP     .134            .5              .073            .134        
       GAMMA    0               0               0               0            
         PHI     .6              .6              .6              .6          
      LAMBDA    0               0               0               0            
          IS   10.000000E-15   10.000000E-15   10.000000E-15   10.000000E-15 
          JS    0               0               0               0            
          PB     .8              .8              .8              .8          
        PBSW     .8              .8              .8              .8          
          CJ    0               0               0               0            
        CJSW    0               0               0               0            
        CGSO    0               0               0               0            
        CGDO    0               0               0               0            
        CGBO    0               0               0               0            
         TOX    0               0               0               0            
          XJ    0               0               0               0            
       UCRIT   10.000000E+03   10.000000E+03   10.000000E+03   10.000000E+03 
      DIOMOD    1               1               1               1            
         VFB    0               0               0               0            
        LETA    0               0               0               0            
        WETA    0               0               0               0            
          U0    0               0               0               0            
        TEMP    0               0               0               0            
         VDD    0               0               0               0            
       XPART    0               0               0               0            


               X_M83.MSW       X_M83.MVRD      
               NMOS            NMOS            
       LEVEL    1               1            
           L  100.000000E-06  100.000000E-06 
           W  100.000000E-06  100.000000E-06 
         VTO    1.000000E-03   -4.859        
          KP     .5              .073        
       GAMMA    0               0            
         PHI     .6              .6          
      LAMBDA    0               0            
          IS   10.000000E-15   10.000000E-15 
          JS    0               0            
          PB     .8              .8          
        PBSW     .8              .8          
          CJ    0               0            
        CJSW    0               0            
        CGSO    0               0            
        CGDO    0               0            
        CGBO    0               0            
         TOX    0               0            
          XJ    0               0            
       UCRIT   10.000000E+03   10.000000E+03 
      DIOMOD    1               1            
         VFB    0               0            
        LETA    0               0            
        WETA    0               0            
          U0    0               0            
        TEMP    0               0            
         VDD    0               0            
       XPART    0               0            


ERROR -- Convergence problem in bias point calculation


  Last node voltages tried were:

 NODE   VOLTAGE     NODE   VOLTAGE     NODE   VOLTAGE     NODE   VOLTAGE


(  IO1) 10.00E-06  (  IO2)-78.60E-06  (  IO4)-958.9E-06  (  IO5)-999.7E-06      

(  IO7)-949.9E-06  (  IO8)-999.8E-06  (N05735)    -.0203 (N05885)    -.0292     

(N05995) 60.00E-06 (N18493) 32.80E-06 (N18539) 60.00E-06 (N18551) 98.87E-06     

(N19574) 99.92E-06 (N19620) 60.00E-06 (N19632)-900.0E-06 (N19897) 60.00E-06     

(N19943) 60.00E-06 (N19955)    -.0010 (N20242) 41.05E-06 (N20288) 60.00E-06     

(N20300)    -.0010 (N31973) 60.00E-06 (N31977) 59.87E-06 (N32029)    -.0010     

(N32972) 60.00E-06 (N32976) 59.87E-06 (N33028)    -.0010 (N33461) 60.00E-06     

(N33465) 59.87E-06 (N33517)    -.0010 (N33977) 60.00E-06 (N33981) 59.96E-06     

(N34033)-900.0E-06 (X_M11.4)    -.0203                   (X_M11.5)-78.60E-06    

(X_M11.8)    -.0223                   (X_M12.4) 10.00E-06                       

(X_M12.5) 10.00E-06                   (X_M12.8)    -.0104                       

(X_M13.5)    -.0203                   (X_M13.8)    -.0151                       

(X_M14.5)    -.0203                   (X_M14.8) 50.00E-06                       

(X_M21.4) 32.80E-06                   (X_M21.5) 10.00E-06                       

(X_M21.8) 76.82E-06                   (X_M22.4)-78.60E-06                       

(X_M22.5)-78.60E-06                   (X_M22.8)     .0166                       

(X_M23.5) 32.80E-06                   (X_M23.8)    -.0049                       

(X_M24.5) 32.80E-06                   (X_M24.8)    -.0633                       

(X_M31.4) 99.92E-06                   (X_M31.5)-958.9E-06                       

(X_M31.8)    -.2874                   (X_M32.4)-78.60E-06                       

(X_M32.5)    0.0000                   (X_M32.8)-625.4E-06                       

(X_M33.5) 99.92E-06                   (X_M33.8) 79.97E-06                       

(X_M34.5) 99.92E-06                   (X_M34.8)    -.0633                       

(X_M41.4) 60.00E-06                   (X_M41.5)-999.7E-06                       

(X_M41.8) 60.00E-06                   (X_M42.4)-958.9E-06                       

(X_M42.5)-78.60E-06                   (X_M42.8)-986.3E-06                       

(X_M43.5) 60.00E-06                   (X_M43.8)-940.7E-06                       

(X_M44.5) 60.00E-06                   (X_M44.8)     .0597                       

(X_M51.4) 41.05E-06                   (X_M51.5)    0.0000                       

(X_M51.8) 41.05E-06                   (X_M52.4)-999.7E-06                       

(X_M52.5)-958.9E-06                   (X_M52.8)-999.9E-06                       

(X_M53.5) 41.05E-06                   (X_M53.8)-941.3E-06                       

(X_M54.5) 41.05E-06                   (X_M54.8)-979.7E-06                       

(X_M61.4) 59.96E-06                   (X_M61.5)-949.9E-06                       

(X_M61.8)-578.9E-06                   (X_M62.4)-999.7E-06                       

(X_M62.5)    0.0000                   (X_M62.8)-933.2E-06                       

(X_M63.5) 59.96E-06                   (X_M63.8) 66.65E-06                       

(X_M64.5) 59.96E-06                   (X_M64.8)-979.7E-06                       

(X_M71.4) 59.87E-06                   (X_M71.5)-999.8E-06                       

(X_M71.8) 59.87E-06                   (X_M72.4)-949.9E-06                       

(X_M72.5)-999.7E-06                   (X_M72.8)-983.3E-06                       

(X_M73.5) 59.87E-06                   (X_M73.8) 66.62E-06                       

(X_M74.5) 59.87E-06                   (X_M74.8)-271.2E-06                       

(X_M81.4) 59.87E-06                   (X_M81.5)    0.0000                       

(X_M81.8) 59.87E-06                   (X_M82.4)-999.8E-06                       

(X_M82.5)-949.9E-06                   (X_M82.8)-999.9E-06                       

(X_M83.5) 59.87E-06                   (X_M83.8) 66.62E-06                       

(X_M84.5) 59.87E-06                   (X_M84.8)-979.8E-06                       

(X_M91.4) 59.87E-06                   (X_M91.5)    0.0000                       

(X_M91.8) 59.87E-06                   (X_M92.4)-999.8E-06                       

(X_M92.5)-999.8E-06                   (X_M92.8)-999.9E-06                       

(X_M93.5) 59.87E-06                   (X_M93.8) 66.62E-06                       

(X_M94.5) 59.87E-06                   (X_M94.8)-979.8E-06                       

(X_M11.11)    -.0203                  (X_M11.76)-78.60E-06                      

(X_M11.86)    -.0292                  (X_M12.11) 11.43E-06                      

(X_M12.76) 9.999E-06                  (X_M12.86)    -.0292                      

(X_M13.76)    -.0203                  (X_M13.87)    -.0215                      

(X_M13.95)    -.0203                  (X_M13.97) 60.00E-06                      

(X_M13.98) 119.7E-06                  (X_M13.99)    -.0215                      

(X_M14.76)    -.0203                  (X_M14.87) 30.00E-06                      

(X_M14.95) 10.00E-06                  (X_M14.97) 60.00E-06                      

(X_M14.98) 60.00E-06                  (X_M14.99) 10.00E-06                      

(X_M21.11) 32.80E-06                  (X_M21.76) 10.00E-06                      

(X_M21.86) 98.87E-06                  (X_M22.11)-78.66E-06                      

(X_M22.76)-78.60E-06                  (X_M22.86) 98.87E-06                      

(X_M23.76) 32.80E-06                  (X_M23.87) 52.80E-06                      

(X_M23.95) 32.80E-06                  (X_M23.97) 60.00E-06                      

(X_M23.98) 60.00E-06                  (X_M23.99) 32.80E-06                      

(X_M24.76) 32.80E-06                  (X_M24.87) 265.6E-06                      

(X_M24.95)-78.60E-06                  (X_M24.97) 60.00E-06                      

(X_M24.98) 44.51E-06                  (X_M24.99) 245.6E-06                      

(X_M31.11) 99.92E-06                  (X_M31.76)-958.9E-06                      

(X_M31.86)-900.0E-06                  (X_M32.11)-78.60E-06                      

(X_M32.76)-33.31E-12                  (X_M32.86)-900.0E-06                      

(X_M33.76) 99.92E-06                  (X_M33.87) 119.9E-06                      

(X_M33.95) 99.92E-06                  (X_M33.97) 60.00E-06                      

(X_M33.98) 60.00E-06                  (X_M33.99) 99.92E-06                      

(X_M34.76) 99.92E-06                  (X_M34.87) 265.6E-06                      

(X_M34.95)-78.60E-06                  (X_M34.97) 60.00E-06                      

(X_M34.98) 44.51E-06                  (X_M34.99) 245.6E-06                      

(X_M41.11) 60.00E-06                  (X_M41.76)-999.7E-06                      

(X_M41.86)    -.0010                  (X_M42.11)-958.9E-06                      

(X_M42.76)-78.60E-06                  (X_M42.86)    -.0010                      

(X_M43.76) 60.00E-06                  (X_M43.87) 80.00E-06                      

(X_M43.95) 60.00E-06                  (X_M43.97) 60.00E-06                      

(X_M43.98) 60.00E-06                  (X_M43.99) 60.00E-06                      

(X_M44.76) 60.00E-06                  (X_M44.87)-938.9E-06                      

(X_M44.95)-958.9E-06                  (X_M44.97) 60.00E-06                      

(X_M44.98) 60.00E-06                  (X_M44.99)-958.9E-06                      

(X_M51.11) 41.05E-06                  (X_M51.76)-36.94E-12                      

(X_M51.86)    -.0010                  (X_M52.11)-999.7E-06                      

(X_M52.76)-958.9E-06                  (X_M52.86)    -.0010                      

(X_M53.76) 41.05E-06                  (X_M53.87) 61.05E-06                      

(X_M53.95) 41.05E-06                  (X_M53.97) 60.00E-06                      

(X_M53.98) 60.00E-06                  (X_M53.99) 41.05E-06                      

(X_M54.76) 41.05E-06                  (X_M54.87)-979.7E-06                      

(X_M54.95)-999.7E-06                  (X_M54.97) 60.00E-06                      

(X_M54.98) 60.00E-06                  (X_M54.99)-999.7E-06                      

(X_M61.11) 59.96E-06                  (X_M61.76)-949.9E-06                      

(X_M61.86)-900.0E-06                  (X_M62.11)-999.7E-06                      

(X_M62.76)-33.31E-12                  (X_M62.86)-900.0E-06                      

(X_M63.76) 59.96E-06                  (X_M63.87) 79.96E-06                      

(X_M63.95) 59.96E-06                  (X_M63.97) 60.00E-06                      

(X_M63.98) 60.00E-06                  (X_M63.99) 59.96E-06                      

(X_M64.76) 59.96E-06                  (X_M64.87)-979.7E-06                      

(X_M64.95)-999.7E-06                  (X_M64.97) 60.00E-06                      

(X_M64.98) 60.00E-06                  (X_M64.99)-999.7E-06                      

(X_M71.11) 59.87E-06                  (X_M71.76)-999.8E-06                      

(X_M71.86)    -.0010                  (X_M72.11)-949.9E-06                      

(X_M72.76)-999.7E-06                  (X_M72.86)    -.0010                      

(X_M73.76) 59.87E-06                  (X_M73.87) 79.87E-06                      

(X_M73.95) 59.87E-06                  (X_M73.97) 60.00E-06                      

(X_M73.98) 60.00E-06                  (X_M73.99) 59.87E-06                      

(X_M74.76) 59.87E-06                  (X_M74.87)-929.9E-06                      

(X_M74.95)-949.9E-06                  (X_M74.97) 60.00E-06                      

(X_M74.98) 60.00E-06                  (X_M74.99)-949.9E-06                      

(X_M81.11) 59.87E-06                  (X_M81.76)-36.94E-12                      

(X_M81.86)    -.0010                  (X_M82.11)-999.8E-06                      

(X_M82.76)-949.9E-06                  (X_M82.86)    -.0010                      

(X_M83.76) 59.87E-06                  (X_M83.87) 79.87E-06                      

(X_M83.95) 59.87E-06                  (X_M83.97) 60.00E-06                      

(X_M83.98) 60.00E-06                  (X_M83.99) 59.87E-06                      

(X_M84.76) 59.87E-06                  (X_M84.87)-979.8E-06                      

(X_M84.95)-999.8E-06                  (X_M84.97) 60.00E-06                      

(X_M84.98) 60.00E-06                  (X_M84.99)-999.8E-06                      

(X_M91.11) 59.87E-06                  (X_M91.76)-36.94E-12                      

(X_M91.86)    -.0010                  (X_M92.11)-999.8E-06                      

(X_M92.76)-999.8E-06                  (X_M92.86)    -.0010                      

(X_M93.76) 59.87E-06                  (X_M93.87) 79.87E-06                      

(X_M93.95) 59.87E-06                  (X_M93.97) 60.00E-06                      

(X_M93.98) 60.00E-06                  (X_M93.99) 59.87E-06                      

(X_M94.76) 59.87E-06                  (X_M94.87)-979.8E-06                      

(X_M94.95)-999.8E-06                  (X_M94.97) 60.00E-06                      

(X_M94.98) 60.00E-06                  (X_M94.99)-999.8E-06                  


  These voltages failed to converge:

    V(N05885)                 =   -1.000mV  \   -29.19mV
    V(IO2)                    =   168.97uV  \   -78.60uV
    V(IO4)                    =  -949.95uV  \  -958.88uV
    V(N18551)                 =   690.42uV  \    98.88uV
    V(X_M13.5)                =    10.62mV  \   -20.28mV
    V(N05735)                 =    10.62mV  \   -20.28mV
    V(X_M13.95)               =    10.62mV  \   -20.28mV
    V(X_M13.99)               =    10.62mV  \   -21.53mV
    V(X_M13.76)               =    10.62mV  \   -20.28mV
    V(X_M13.98)               =    60.00uV  \   119.69uV
    V(X_M13.87)               =    10.64mV  \   -21.51mV
    V(X_M13.8)                =    23.84mV  \   -15.05mV
    V(X_M32.4)                =   168.97uV  \   -78.60uV
    V(X_M32.11)               =   168.97uV  \   -78.60uV
    V(X_M32.8)                =  -542.38uV  \  -625.39uV
    V(X_M54.5)                =    39.41uV  \    41.05uV
    V(N20242)                 =    39.41uV  \    41.05uV
    V(X_M54.76)               =    39.41uV  \    41.05uV
    V(X_M41.4)                =    49.29uV  \    60.00uV
    V(X_M41.11)               =    49.29uV  \    60.00uV
    V(X_M41.8)                =    49.29uV  \    60.00uV
    V(N19897)                 =    49.29uV  \    60.00uV
    V(X_M23.5)                =    36.40uV  \    32.80uV
    V(N18493)                 =    36.40uV  \    32.80uV
    V(X_M23.95)               =    36.40uV  \    32.80uV
    V(X_M23.99)               =    36.40uV  \    32.80uV
    V(X_M23.76)               =    36.40uV  \    32.80uV
    V(X_M23.87)               =    56.40uV  \    52.80uV
    V(X_M23.8)                =   -2.895mV  \   -4.850mV
    V(X_M14.5)                =    10.62mV  \   -20.28mV
    V(X_M14.76)               =    10.62mV  \   -20.28mV
    V(X_M21.86)               =   690.42uV  \    98.88uV
    V(X_M21.4)                =    36.40uV  \    32.80uV
    V(X_M21.11)               =    36.40uV  \    32.80uV
    V(X_M21.8)                =   472.51uV  \    76.82uV
    V(X_M34.5)                =    77.07uV  \    99.92uV
    V(N19574)                 =    77.07uV  \    99.92uV
    V(X_M34.95)               =   168.97uV  \   -78.60uV
    V(X_M34.99)               =   667.65uV  \   245.58uV
    V(X_M34.76)               =    77.07uV  \    99.92uV
    V(X_M34.98)               =    36.17uV  \    44.51uV
    V(X_M34.87)               =   687.65uV  \   265.58uV
    V(X_M34.8)                =   -31.89mV  \   -63.35mV
    V(X_M53.5)                =    39.41uV  \    41.05uV
    V(X_M53.95)               =    39.41uV  \    41.05uV
    V(X_M53.99)               =    39.41uV  \    41.05uV
    V(X_M53.76)               =    39.41uV  \    41.05uV
    V(X_M53.87)               =    59.41uV  \    61.05uV
    V(X_M42.5)                =   168.97uV  \   -78.60uV
    V(X_M42.4)                =  -949.95uV  \  -958.88uV
    V(X_M42.11)               =  -949.95uV  \  -958.88uV
    V(X_M42.76)               =   168.97uV  \   -78.60uV
    V(X_M42.8)                =  -983.31uV  \  -986.29uV
    V(X_M51.4)                =    39.41uV  \    41.05uV
    V(X_M51.11)               =    39.41uV  \    41.05uV
    V(X_M51.8)                =    39.41uV  \    41.05uV
    V(X_M11.5)                =   168.97uV  \   -78.60uV
    V(X_M11.86)               =   -1.000mV  \   -29.19mV
    V(X_M11.4)                =    10.62mV  \   -20.28mV
    V(X_M11.11)               =    10.62mV  \   -20.28mV
    V(X_M11.76)               =   168.97uV  \   -78.60uV
    V(X_M11.8)                =    11.91mV  \   -22.30mV
    V(X_M33.5)                =    77.07uV  \    99.92uV
    V(X_M33.95)               =    77.07uV  \    99.92uV
    V(X_M33.99)               =    77.07uV  \    99.92uV
    V(X_M33.76)               =    77.07uV  \    99.92uV
    V(X_M33.87)               =    97.07uV  \   119.92uV
    V(X_M33.8)                =    72.36uV  \    79.97uV
    V(X_M22.5)                =   168.97uV  \   -78.60uV
    V(X_M22.86)               =   690.42uV  \    98.88uV
    V(X_M22.4)                =   168.97uV  \   -78.60uV
    V(X_M22.11)               =   168.88uV  \   -78.66uV
    V(X_M22.76)               =   168.97uV  \   -78.60uV
    V(X_M22.8)                =    9.241mV  \    16.64mV
    V(X_M44.5)                =    49.29uV  \    60.00uV
    V(X_M44.95)               =  -949.95uV  \  -958.88uV
    V(X_M44.99)               =  -949.95uV  \  -958.88uV
    V(X_M44.76)               =    49.29uV  \    60.00uV
    V(X_M44.87)               =  -929.95uV  \  -938.88uV
    V(X_M44.8)                =    28.93mV  \    59.68mV
    V(X_M12.86)               =   -1.000mV  \   -29.19mV
    V(X_M12.11)               =    10.00uV  \    11.43uV
    V(X_M12.8)                =   -13.43mV  \   -10.40mV
    V(X_M31.5)                =  -949.95uV  \  -958.88uV
    V(X_M31.4)                =    77.07uV  \    99.92uV
    V(X_M31.11)               =    77.07uV  \    99.92uV
    V(X_M31.76)               =  -949.95uV  \  -958.88uV
    V(X_M31.8)                =  -261.49mV  \  -287.36mV
    V(X_M24.5)                =    36.40uV  \    32.80uV
    V(X_M24.95)               =   168.97uV  \   -78.60uV
    V(X_M24.99)               =   667.65uV  \   245.58uV
    V(X_M24.76)               =    36.40uV  \    32.80uV
    V(X_M24.98)               =    36.17uV  \    44.51uV
    V(X_M24.87)               =   687.65uV  \   265.58uV
    V(X_M24.8)                =   -31.89mV  \   -63.35mV
    V(X_M52.5)                =  -949.95uV  \  -958.88uV
    V(X_M52.76)               =  -949.95uV  \  -958.88uV
    V(X_M43.5)                =    49.29uV  \    60.00uV
    V(X_M43.95)               =    49.29uV  \    60.00uV
    V(X_M43.99)               =    49.29uV  \    60.00uV
    V(X_M43.76)               =    49.29uV  \    60.00uV
    V(X_M43.87)               =    69.29uV  \    80.00uV

  These supply currents failed to converge:

    I(X_M13.LS)               =    44.77fA  \   244.32pA
    I(X_M13.LD)               =    10.63fA  \    21.17uA
    I(X_M13.LG)               =   -55.44fA  \   -21.17uA
    I(X_M14.LS)               =    44.76fA  \   244.32pA
    I(X_M14.LD)               =   -44.82fA  \  -244.32pA
    I(X_M21.LS)               =    7.919pA  \    1.026pA
    I(X_M21.LD)               =   -7.920pA  \   -1.026pA
    I(X_M34.LD)               =   -8.452uA  \   -5.495uA
    I(X_M34.LG)               =    8.452uA  \    5.495uA
    I(X_M42.LS)               =   -13.27pA  \   -10.50pA
    I(X_M42.LD)               =    13.27pA  \    10.50pA
    I(X_M11.LS)               =   -97.51pA  \  -358.47pA
    I(X_M11.LD)               =    97.55pA  \   -21.17uA
    I(X_M11.LG)               =   -34.20fA  \    21.17uA
    I(X_M22.LS)               =    6.084pA  \    2.064pA
    I(X_M22.LD)               =    16.90uA  \    10.99uA
    I(X_M22.LG)               =   -16.90uA  \   -10.99uA
    I(X_M12.LS)               =   -97.28pA  \  -357.19pA
    I(X_M12.LD)               =    97.25pA  \  -260.76uA
    I(X_M12.LG)               =    26.21fA  \   260.76uA
    I(X_M24.LD)               =   -8.452uA  \   -5.495uA
    I(X_M24.LG)               =    8.452uA  \    5.495uA
    I(V_V3)                   =   -8.452uA  \   -5.495uA
    I(V_VSIG)                 =   -89.33pA  \   260.76uA
    I(V_V1)                   =   -34.19fA  \    21.17uA
    I(V_V2)                   =   -8.452uA  \   -5.495uA
    I(X_M13.VGC)              =   -55.44fA  \   -21.17uA
    I(X_M34.VGC)              =    8.452uA  \    5.495uA
    I(X_M24.VGC)              =    8.452uA  \    5.495uA

  These devices failed to converge:
    X_M13.D119 X_M14.D119 X_M11.D110 X_M12.D110 X_M31.DGD X_M13.M3  X_M13.MHELP 
    X_M32.M2  X_M23.M2  X_M23.M3  X_M34.M2  X_M34.M3  X_M11.M2  X_M11.M3  
    X_M22.M2  X_M22.M3  X_M12.M2  X_M31.M2  X_M31.M3  X_M24.M2  X_M24.M3  
    X_M43.M3  

          JOB ABORTED

          TOTAL JOB TIME            4.81
